* NGSPICE file created from n_bit_alu.ext - technology: sky130A

* Black-box entry subcircuit for sky130_fd_sc_hd__tapvpwrvgnd_1 abstract view
.subckt sky130_fd_sc_hd__tapvpwrvgnd_1 VGND VPWR
.ends

* Black-box entry subcircuit for sky130_fd_sc_hd__decap_8 abstract view
.subckt sky130_fd_sc_hd__decap_8 VGND VNB VPB VPWR
.ends

* Black-box entry subcircuit for sky130_fd_sc_hd__mux2_1 abstract view
.subckt sky130_fd_sc_hd__mux2_1 A0 A1 S VGND VNB VPB VPWR X
.ends

* Black-box entry subcircuit for sky130_fd_sc_hd__decap_3 abstract view
.subckt sky130_fd_sc_hd__decap_3 VGND VNB VPB VPWR
.ends

* Black-box entry subcircuit for sky130_fd_sc_hd__xor2_1 abstract view
.subckt sky130_fd_sc_hd__xor2_1 A B VGND VNB VPB VPWR X
.ends

* Black-box entry subcircuit for sky130_ef_sc_hd__decap_12 abstract view
.subckt sky130_ef_sc_hd__decap_12 VPWR VGND VPB VNB
.ends

* Black-box entry subcircuit for sky130_fd_sc_hd__decap_6 abstract view
.subckt sky130_fd_sc_hd__decap_6 VGND VNB VPB VPWR
.ends

* Black-box entry subcircuit for sky130_fd_sc_hd__decap_4 abstract view
.subckt sky130_fd_sc_hd__decap_4 VGND VNB VPB VPWR
.ends

* Black-box entry subcircuit for sky130_fd_sc_hd__fill_2 abstract view
.subckt sky130_fd_sc_hd__fill_2 VGND VNB VPB VPWR
.ends

* Black-box entry subcircuit for sky130_fd_sc_hd__clkbuf_1 abstract view
.subckt sky130_fd_sc_hd__clkbuf_1 A VGND VNB VPB VPWR X
.ends

* Black-box entry subcircuit for sky130_fd_sc_hd__fill_1 abstract view
.subckt sky130_fd_sc_hd__fill_1 VGND VNB VPB VPWR
.ends

* Black-box entry subcircuit for sky130_fd_sc_hd__and2_0 abstract view
.subckt sky130_fd_sc_hd__and2_0 A B VGND VNB VPB VPWR X
.ends

* Black-box entry subcircuit for sky130_fd_sc_hd__lpflow_inputiso1p_1 abstract view
.subckt sky130_fd_sc_hd__lpflow_inputiso1p_1 A SLEEP VGND VNB VPB VPWR X
.ends

* Black-box entry subcircuit for sky130_fd_sc_hd__buf_1 abstract view
.subckt sky130_fd_sc_hd__buf_1 A VGND VNB VPB VPWR X
.ends

* Black-box entry subcircuit for sky130_fd_sc_hd__inv_1 abstract view
.subckt sky130_fd_sc_hd__inv_1 A VGND VNB VPB VPWR Y
.ends

* Black-box entry subcircuit for sky130_fd_sc_hd__nor2_1 abstract view
.subckt sky130_fd_sc_hd__nor2_1 A B VGND VNB VPB VPWR Y
.ends

* Black-box entry subcircuit for sky130_fd_sc_hd__conb_1 abstract view
.subckt sky130_fd_sc_hd__conb_1 VGND VNB VPB VPWR HI LO
.ends

* Black-box entry subcircuit for sky130_fd_sc_hd__nand4_1 abstract view
.subckt sky130_fd_sc_hd__nand4_1 A B C D VGND VNB VPB VPWR Y
.ends

* Black-box entry subcircuit for sky130_fd_sc_hd__nor4_1 abstract view
.subckt sky130_fd_sc_hd__nor4_1 A B C D VGND VNB VPB VPWR Y
.ends

* Black-box entry subcircuit for sky130_fd_sc_hd__buf_12 abstract view
.subckt sky130_fd_sc_hd__buf_12 A VGND VNB VPB VPWR X
.ends

.subckt n_bit_alu VGND VPWR a[0] a[10] a[11] a[12] a[13] a[14] a[15] a[16] a[17] a[18]
+ a[19] a[1] a[20] a[21] a[22] a[23] a[24] a[25] a[26] a[27] a[28] a[29] a[2] a[30]
+ a[31] a[3] a[4] a[5] a[6] a[7] a[8] a[9] ainv b[0] b[10] b[11] b[12] b[13] b[14]
+ b[15] b[16] b[17] b[18] b[19] b[1] b[20] b[21] b[22] b[23] b[24] b[25] b[26] b[27]
+ b[28] b[29] b[2] b[30] b[31] b[3] b[4] b[5] b[6] b[7] b[8] b[9] binv cin cout fake_clk
+ overflow result[0] result[10] result[11] result[12] result[13] result[14] result[15]
+ result[16] result[17] result[18] result[19] result[1] result[20] result[21] result[22]
+ result[23] result[24] result[25] result[26] result[27] result[28] result[29] result[2]
+ result[30] result[31] result[3] result[4] result[5] result[6] result[7] result[8]
+ result[9] select[0] select[1] zero
XTAP_TAPCELL_ROW_9_126 VGND VPWR sky130_fd_sc_hd__tapvpwrvgnd_1
XTAP_TAPCELL_ROW_23_183 VGND VPWR sky130_fd_sc_hd__tapvpwrvgnd_1
XFILLER_0_13_84 VGND VGND VPWR VPWR sky130_fd_sc_hd__decap_8
X_1606_ net47 _0654_ net66 VGND VGND VPWR VPWR _0658_ sky130_fd_sc_hd__mux2_1
XFILLER_0_38_81 VGND VGND VPWR VPWR sky130_fd_sc_hd__decap_3
X_1537_ _0463_ net135 net68 VGND VGND VPWR VPWR _0474_ sky130_fd_sc_hd__mux2_1
X_1399_ net70 _0030_ VGND VGND VPWR VPWR net71 sky130_fd_sc_hd__xor2_1
X_1468_ _0275_ _0269_ net69 VGND VGND VPWR VPWR _0046_ sky130_fd_sc_hd__mux2_1
XPHY_EDGE_ROW_19_Left_61 VGND VGND VPWR VPWR sky130_fd_sc_hd__decap_3
XFILLER_0_20_217 VPWR VGND VPWR VGND sky130_ef_sc_hd__decap_12
XFILLER_0_18_29 VGND VGND VPWR VPWR sky130_fd_sc_hd__decap_6
XFILLER_0_11_239 VGND VGND VPWR VPWR sky130_fd_sc_hd__decap_4
XPHY_EDGE_ROW_4_Left_46 VGND VGND VPWR VPWR sky130_fd_sc_hd__decap_3
XTAP_TAPCELL_ROW_40_248 VGND VPWR sky130_fd_sc_hd__tapvpwrvgnd_1
XFILLER_0_37_169 VGND VGND VPWR VPWR sky130_fd_sc_hd__decap_4
XFILLER_0_0_29 VGND VGND VPWR VPWR sky130_fd_sc_hd__fill_2
X_1940_ _0066_ VGND VGND VPWR VPWR net95 sky130_fd_sc_hd__clkbuf_1
XFILLER_0_28_147 VGND VGND VPWR VPWR sky130_fd_sc_hd__fill_1
XTAP_TAPCELL_ROW_31_215 VGND VPWR sky130_fd_sc_hd__tapvpwrvgnd_1
XFILLER_0_3_225 VPWR VGND VPWR VGND sky130_ef_sc_hd__decap_12
XFILLER_0_3_203 VPWR VGND VPWR VGND sky130_ef_sc_hd__decap_12
XFILLER_0_10_85 VPWR VGND VPWR VGND sky130_ef_sc_hd__decap_12
XFILLER_0_19_50 VGND VGND VPWR VPWR sky130_fd_sc_hd__decap_6
XFILLER_0_19_125 VGND VGND VPWR VPWR sky130_fd_sc_hd__decap_8
XFILLER_0_34_139 VGND VGND VPWR VPWR sky130_fd_sc_hd__fill_1
XFILLER_0_19_169 VPWR VGND VPWR VGND sky130_ef_sc_hd__decap_12
XFILLER_0_18_180 VPWR VGND VPWR VGND sky130_ef_sc_hd__decap_12
XFILLER_0_25_139 VGND VGND VPWR VPWR sky130_fd_sc_hd__fill_2
XFILLER_0_31_18 VGND VGND VPWR VPWR sky130_fd_sc_hd__decap_8
XFILLER_0_33_183 VGND VGND VPWR VPWR sky130_fd_sc_hd__decap_8
X_1785_ _1154_ _1197_ VGND VGND VPWR VPWR _1194_ sky130_fd_sc_hd__and2_0
XFILLER_0_16_139 VGND VGND VPWR VPWR sky130_fd_sc_hd__fill_1
X_1923_ _0047_ VGND VGND VPWR VPWR net76 sky130_fd_sc_hd__clkbuf_1
XFILLER_0_24_194 VGND VGND VPWR VPWR sky130_fd_sc_hd__fill_2
XFILLER_0_22_109 VGND VGND VPWR VPWR sky130_fd_sc_hd__decap_4
XFILLER_0_30_164 VPWR VGND VPWR VGND sky130_ef_sc_hd__decap_12
XFILLER_0_26_18 VGND VGND VPWR VPWR sky130_fd_sc_hd__decap_8
XFILLER_0_26_29 VGND VGND VPWR VPWR sky130_fd_sc_hd__decap_8
XFILLER_0_13_109 VGND VGND VPWR VPWR sky130_fd_sc_hd__decap_3
X_1570_ _0576_ _0574_ VGND VGND VPWR VPWR _0573_ sky130_fd_sc_hd__and2_0
XFILLER_0_21_120 VPWR VGND VPWR VGND sky130_ef_sc_hd__decap_12
XFILLER_0_21_197 VPWR VGND VPWR VGND sky130_ef_sc_hd__decap_12
XFILLER_0_8_103 VGND VGND VPWR VPWR sky130_fd_sc_hd__decap_3
XFILLER_0_8_125 VGND VGND VPWR VPWR sky130_fd_sc_hd__fill_1
XFILLER_0_32_83 VGND VGND VPWR VPWR sky130_fd_sc_hd__fill_1
X_1768_ _1152_ _1153_ VGND VGND VPWR VPWR _1154_ sky130_fd_sc_hd__lpflow_inputiso1p_1
XFILLER_0_12_153 VGND VGND VPWR VPWR sky130_fd_sc_hd__decap_6
X_1837_ _1355_ _1353_ VGND VGND VPWR VPWR _1356_ sky130_fd_sc_hd__lpflow_inputiso1p_1
X_1699_ _0945_ _0943_ VGND VGND VPWR VPWR _0947_ sky130_fd_sc_hd__and2_0
XFILLER_0_12_197 VPWR VGND VPWR VGND sky130_ef_sc_hd__decap_12
Xoutput75 net75 VGND VGND VPWR VPWR result[12] sky130_fd_sc_hd__buf_1
XPHY_EDGE_ROW_33_Left_75 VGND VGND VPWR VPWR sky130_fd_sc_hd__decap_3
XFILLER_0_37_39 VPWR VGND VPWR VGND sky130_ef_sc_hd__decap_12
Xoutput86 net86 VGND VGND VPWR VPWR result[22] sky130_fd_sc_hd__buf_1
Xoutput97 net97 VGND VGND VPWR VPWR result[3] sky130_fd_sc_hd__buf_1
XTAP_TAPCELL_ROW_26_192 VGND VPWR sky130_fd_sc_hd__tapvpwrvgnd_1
X_1622_ _0726_ _0720_ net69 VGND VGND VPWR VPWR _0057_ sky130_fd_sc_hd__mux2_1
X_1553_ _0491_ _0495_ net68 VGND VGND VPWR VPWR _0521_ sky130_fd_sc_hd__mux2_1
X_1484_ net6 VGND VGND VPWR VPWR _0325_ sky130_fd_sc_hd__inv_1
XFILLER_0_27_50 VGND VGND VPWR VPWR sky130_fd_sc_hd__decap_6
XTAP_TAPCELL_ROW_9_127 VGND VPWR sky130_fd_sc_hd__tapvpwrvgnd_1
XFILLER_0_2_109 VGND VGND VPWR VPWR sky130_fd_sc_hd__decap_4
XFILLER_0_13_63 VGND VGND VPWR VPWR sky130_fd_sc_hd__fill_1
X_1536_ net42 _0449_ net66 VGND VGND VPWR VPWR _0453_ sky130_fd_sc_hd__mux2_1
X_1605_ net14 _0653_ net33 VGND VGND VPWR VPWR _0656_ sky130_fd_sc_hd__mux2_1
X_1398_ _0036_ _0041_ VGND VGND VPWR VPWR net104 sky130_fd_sc_hd__nor2_1
X_1467_ _0258_ net130 net68 VGND VGND VPWR VPWR _0269_ sky130_fd_sc_hd__mux2_1
XFILLER_0_9_242 VGND VGND VPWR VPWR sky130_fd_sc_hd__fill_1
XFILLER_0_20_229 VPWR VGND VPWR VGND sky130_ef_sc_hd__decap_12
XFILLER_0_34_18 VGND VGND VPWR VPWR sky130_fd_sc_hd__decap_8
XFILLER_0_34_29 VGND VGND VPWR VPWR sky130_fd_sc_hd__fill_2
XTAP_TAPCELL_ROW_11_132 VGND VPWR sky130_fd_sc_hd__tapvpwrvgnd_1
XFILLER_0_11_218 VGND VGND VPWR VPWR sky130_fd_sc_hd__decap_6
XPHY_EDGE_ROW_20_Left_62 VGND VGND VPWR VPWR sky130_fd_sc_hd__decap_3
XTAP_TAPCELL_ROW_34_224 VGND VPWR sky130_fd_sc_hd__tapvpwrvgnd_1
XFILLER_0_40_83 VGND VGND VPWR VPWR sky130_fd_sc_hd__fill_1
XPHY_EDGE_ROW_12_Right_12 VGND VGND VPWR VPWR sky130_fd_sc_hd__decap_3
X_1519_ _0375_ _0418_ VGND VGND VPWR VPWR _0415_ sky130_fd_sc_hd__and2_0
XFILLER_0_4_83 VGND VGND VPWR VPWR sky130_fd_sc_hd__fill_1
XPHY_EDGE_ROW_21_Right_21 VGND VGND VPWR VPWR sky130_fd_sc_hd__decap_3
XTAP_TAPCELL_ROW_40_249 VGND VPWR sky130_fd_sc_hd__tapvpwrvgnd_1
XPHY_EDGE_ROW_30_Right_30 VGND VGND VPWR VPWR sky130_fd_sc_hd__decap_3
XFILLER_0_29_18 VGND VGND VPWR VPWR sky130_fd_sc_hd__decap_8
XFILLER_0_3_215 VGND VGND VPWR VPWR sky130_fd_sc_hd__decap_8
XFILLER_0_3_237 VGND VGND VPWR VPWR sky130_fd_sc_hd__decap_8
XFILLER_0_10_97 VGND VGND VPWR VPWR sky130_fd_sc_hd__fill_1
XTAP_TAPCELL_ROW_0_90 VGND VPWR sky130_fd_sc_hd__tapvpwrvgnd_1
XFILLER_0_29_6 VPWR VGND VPWR VGND sky130_ef_sc_hd__decap_12
XFILLER_0_19_104 VGND VGND VPWR VPWR sky130_fd_sc_hd__decap_8
XFILLER_0_19_148 VPWR VGND VPWR VGND sky130_ef_sc_hd__decap_12
XFILLER_0_27_181 VGND VGND VPWR VPWR sky130_fd_sc_hd__fill_2
XFILLER_0_27_192 VGND VGND VPWR VPWR sky130_fd_sc_hd__fill_1
XFILLER_0_18_192 VGND VGND VPWR VPWR sky130_fd_sc_hd__decap_4
X_1922_ _0046_ VGND VGND VPWR VPWR net75 sky130_fd_sc_hd__clkbuf_1
X_1784_ _1191_ _1189_ VGND VGND VPWR VPWR _1197_ sky130_fd_sc_hd__xor2_1
XFILLER_0_21_30 VPWR VGND VPWR VGND sky130_ef_sc_hd__decap_12
XFILLER_0_24_162 VPWR VGND VPWR VGND sky130_ef_sc_hd__decap_12
XFILLER_0_30_176 VGND VGND VPWR VPWR sky130_fd_sc_hd__fill_2
XFILLER_0_38_221 VPWR VGND VPWR VGND sky130_ef_sc_hd__decap_12
XFILLER_0_6_29 VGND VGND VPWR VPWR sky130_fd_sc_hd__decap_8
XFILLER_0_21_132 VGND VGND VPWR VPWR sky130_fd_sc_hd__decap_6
XFILLER_0_16_52 VPWR VGND VPWR VGND sky130_ef_sc_hd__decap_12
XFILLER_0_16_85 VGND VGND VPWR VPWR sky130_fd_sc_hd__decap_6
XFILLER_0_29_221 VGND VGND VPWR VPWR sky130_fd_sc_hd__decap_3
XFILLER_0_29_232 VGND VGND VPWR VPWR sky130_fd_sc_hd__fill_1
XPHY_EDGE_ROW_6_Right_6 VGND VGND VPWR VPWR sky130_fd_sc_hd__decap_3
X_1698_ _0947_ _0948_ VGND VGND VPWR VPWR _0949_ sky130_fd_sc_hd__lpflow_inputiso1p_1
X_1767_ _1150_ _1148_ VGND VGND VPWR VPWR _1151_ sky130_fd_sc_hd__lpflow_inputiso1p_1
XFILLER_0_12_176 VGND VGND VPWR VPWR sky130_fd_sc_hd__decap_3
X_1836_ _1355_ _1353_ VGND VGND VPWR VPWR _1352_ sky130_fd_sc_hd__and2_0
XFILLER_0_7_181 VGND VGND VPWR VPWR sky130_fd_sc_hd__decap_6
Xoutput87 net87 VGND VGND VPWR VPWR result[23] sky130_fd_sc_hd__buf_1
Xoutput76 net76 VGND VGND VPWR VPWR result[13] sky130_fd_sc_hd__buf_1
Xoutput98 net98 VGND VGND VPWR VPWR result[4] sky130_fd_sc_hd__buf_1
XTAP_TAPCELL_ROW_26_193 VGND VPWR sky130_fd_sc_hd__tapvpwrvgnd_1
XFILLER_0_41_216 VGND VGND VPWR VPWR sky130_fd_sc_hd__decap_8
X_1621_ _0709_ net110 net68 VGND VGND VPWR VPWR _0720_ sky130_fd_sc_hd__mux2_1
X_1552_ _0521_ _0515_ net69 VGND VGND VPWR VPWR _0052_ sky130_fd_sc_hd__mux2_1
X_1483_ _0286_ _0290_ net68 VGND VGND VPWR VPWR _0316_ sky130_fd_sc_hd__mux2_1
X_1803__123 VGND VGND VPWR VPWR _1803__123/HI net123 sky130_fd_sc_hd__conb_1
XFILLER_0_4_195 VGND VGND VPWR VPWR sky130_fd_sc_hd__fill_1
X_1819_ _1270_ _1274_ net68 VGND VGND VPWR VPWR _1300_ sky130_fd_sc_hd__mux2_1
XFILLER_0_13_97 VGND VGND VPWR VPWR sky130_fd_sc_hd__fill_2
X_1535_ net9 _0448_ net33 VGND VGND VPWR VPWR _0451_ sky130_fd_sc_hd__mux2_1
XFILLER_0_1_165 VGND VGND VPWR VPWR sky130_fd_sc_hd__decap_3
X_1604_ _0621_ _0664_ VGND VGND VPWR VPWR _0668_ sky130_fd_sc_hd__xor2_1
X_1466_ net37 _0244_ net66 VGND VGND VPWR VPWR _0248_ sky130_fd_sc_hd__mux2_1
X_1397_ _0037_ _0038_ _0039_ _0040_ VGND VGND VPWR VPWR _0041_ sky130_fd_sc_hd__nand4_1
XFILLER_0_9_232 VGND VGND VPWR VPWR sky130_fd_sc_hd__fill_1
XTAP_TAPCELL_ROW_28_200 VGND VPWR sky130_fd_sc_hd__tapvpwrvgnd_1
XTAP_TAPCELL_ROW_11_133 VGND VPWR sky130_fd_sc_hd__tapvpwrvgnd_1
XTAP_TAPCELL_ROW_34_225 VGND VPWR sky130_fd_sc_hd__tapvpwrvgnd_1
XFILLER_0_24_85 VPWR VGND VPWR VGND sky130_ef_sc_hd__decap_12
XFILLER_0_39_190 VPWR VGND VPWR VGND sky130_ef_sc_hd__decap_12
X_1518_ _0412_ _0410_ VGND VGND VPWR VPWR _0418_ sky130_fd_sc_hd__xor2_1
X_1449_ _0170_ _0213_ VGND VGND VPWR VPWR _0210_ sky130_fd_sc_hd__and2_0
XFILLER_0_37_127 VPWR VGND VPWR VGND sky130_ef_sc_hd__decap_12
XFILLER_0_9_29 VGND VGND VPWR VPWR sky130_fd_sc_hd__fill_1
XFILLER_0_10_54 VPWR VGND VPWR VGND sky130_ef_sc_hd__decap_12
XTAP_TAPCELL_ROW_0_91 VGND VPWR sky130_fd_sc_hd__tapvpwrvgnd_1
XFILLER_0_19_30 VGND VGND VPWR VPWR sky130_fd_sc_hd__decap_4
XFILLER_0_35_51 VGND VGND VPWR VPWR sky130_fd_sc_hd__decap_4
XFILLER_0_19_96 VGND VGND VPWR VPWR sky130_fd_sc_hd__decap_3
X_1551__105 VGND VGND VPWR VPWR _1551__105/HI net105 sky130_fd_sc_hd__conb_1
X_1921_ _0045_ VGND VGND VPWR VPWR net74 sky130_fd_sc_hd__clkbuf_1
X_1783_ _1191_ _1189_ VGND VGND VPWR VPWR _1193_ sky130_fd_sc_hd__and2_0
XFILLER_0_21_42 VPWR VGND VPWR VGND sky130_ef_sc_hd__decap_12
XFILLER_0_24_130 VGND VGND VPWR VPWR sky130_fd_sc_hd__decap_8
XFILLER_0_24_174 VGND VGND VPWR VPWR sky130_fd_sc_hd__decap_6
XFILLER_0_1_52 VGND VGND VPWR VPWR sky130_fd_sc_hd__decap_4
XFILLER_0_15_152 VGND VGND VPWR VPWR sky130_fd_sc_hd__fill_2
XFILLER_0_30_188 VGND VGND VPWR VPWR sky130_fd_sc_hd__decap_8
XFILLER_0_38_233 VPWR VGND VPWR VGND sky130_ef_sc_hd__decap_12
XFILLER_0_21_111 VGND VGND VPWR VPWR sky130_fd_sc_hd__fill_1
XFILLER_0_16_64 VGND VGND VPWR VPWR sky130_fd_sc_hd__decap_4
XFILLER_0_16_75 VGND VGND VPWR VPWR sky130_fd_sc_hd__decap_8
XFILLER_0_8_138 VGND VGND VPWR VPWR sky130_fd_sc_hd__fill_2
XFILLER_0_8_149 VGND VGND VPWR VPWR sky130_fd_sc_hd__fill_2
X_1691__115 VGND VGND VPWR VPWR _1691__115/HI net115 sky130_fd_sc_hd__conb_1
X_1835_ net65 VGND VGND VPWR VPWR _1351_ sky130_fd_sc_hd__inv_1
XFILLER_0_32_85 VGND VGND VPWR VPWR sky130_fd_sc_hd__decap_4
X_1697_ _0945_ _0943_ VGND VGND VPWR VPWR _0946_ sky130_fd_sc_hd__lpflow_inputiso1p_1
X_1766_ _1150_ _1148_ VGND VGND VPWR VPWR _1147_ sky130_fd_sc_hd__and2_0
XFILLER_0_35_225 VPWR VGND VPWR VGND sky130_ef_sc_hd__decap_12
Xoutput77 net77 VGND VGND VPWR VPWR result[14] sky130_fd_sc_hd__buf_1
Xoutput88 net88 VGND VGND VPWR VPWR result[24] sky130_fd_sc_hd__buf_1
Xoutput99 net99 VGND VGND VPWR VPWR result[5] sky130_fd_sc_hd__buf_1
XTAP_TAPCELL_ROW_26_194 VGND VPWR sky130_fd_sc_hd__tapvpwrvgnd_1
X_1551_ _0504_ net105 net68 VGND VGND VPWR VPWR _0515_ sky130_fd_sc_hd__mux2_1
X_1620_ net48 _0695_ net66 VGND VGND VPWR VPWR _0699_ sky130_fd_sc_hd__mux2_1
X_1482_ _0316_ _0310_ net69 VGND VGND VPWR VPWR _0047_ sky130_fd_sc_hd__mux2_1
XFILLER_0_27_30 VGND VGND VPWR VPWR sky130_fd_sc_hd__decap_8
XFILLER_0_27_63 VGND VGND VPWR VPWR sky130_fd_sc_hd__fill_1
XFILLER_0_4_141 VGND VGND VPWR VPWR sky130_fd_sc_hd__decap_8
X_1818_ _1300_ _1294_ net69 VGND VGND VPWR VPWR _0072_ sky130_fd_sc_hd__mux2_1
XFILLER_0_17_225 VPWR VGND VPWR VGND sky130_ef_sc_hd__decap_12
XFILLER_0_7_51 VGND VGND VPWR VPWR sky130_fd_sc_hd__decap_4
X_1749_ _1065_ _1069_ net68 VGND VGND VPWR VPWR _1095_ sky130_fd_sc_hd__mux2_1
X_1465_ net4 _0243_ net33 VGND VGND VPWR VPWR _0246_ sky130_fd_sc_hd__mux2_1
XFILLER_0_1_177 VGND VGND VPWR VPWR sky130_fd_sc_hd__decap_3
X_1603_ _0621_ _0664_ VGND VGND VPWR VPWR _0661_ sky130_fd_sc_hd__and2_0
X_1534_ _0416_ _0459_ VGND VGND VPWR VPWR _0463_ sky130_fd_sc_hd__xor2_1
X_1396_ _0074_ _0044_ _0046_ _0049_ VGND VGND VPWR VPWR _0040_ sky130_fd_sc_hd__nor4_1
XTAP_TAPCELL_ROW_5_110 VGND VPWR sky130_fd_sc_hd__tapvpwrvgnd_1
XTAP_TAPCELL_ROW_28_201 VGND VPWR sky130_fd_sc_hd__tapvpwrvgnd_1
XTAP_TAPCELL_ROW_11_134 VGND VPWR sky130_fd_sc_hd__tapvpwrvgnd_1
XTAP_TAPCELL_ROW_34_226 VGND VPWR sky130_fd_sc_hd__tapvpwrvgnd_1
XFILLER_0_40_41 VPWR VGND VPWR VGND sky130_ef_sc_hd__decap_12
XFILLER_0_4_85 VPWR VGND VPWR VGND sky130_ef_sc_hd__decap_12
X_1517_ _0412_ _0410_ VGND VGND VPWR VPWR _0414_ sky130_fd_sc_hd__and2_0
X_1448_ _0207_ _0205_ VGND VGND VPWR VPWR _0213_ sky130_fd_sc_hd__xor2_1
XFILLER_0_37_139 VGND VGND VPWR VPWR sky130_fd_sc_hd__decap_4
XFILLER_0_28_139 VGND VGND VPWR VPWR sky130_fd_sc_hd__fill_1
XFILLER_0_35_96 VPWR VGND VPWR VGND sky130_ef_sc_hd__decap_12
XFILLER_0_0_209 VGND VGND VPWR VPWR sky130_fd_sc_hd__decap_4
XFILLER_0_21_54 VGND VGND VPWR VPWR sky130_fd_sc_hd__fill_2
X_1920_ _0044_ VGND VGND VPWR VPWR net73 sky130_fd_sc_hd__clkbuf_1
X_1782_ _1193_ _1194_ VGND VGND VPWR VPWR _1195_ sky130_fd_sc_hd__lpflow_inputiso1p_1
XFILLER_0_24_186 VGND VGND VPWR VPWR sky130_fd_sc_hd__decap_8
XFILLER_0_24_197 VPWR VGND VPWR VGND sky130_ef_sc_hd__decap_12
XFILLER_0_34_6 VPWR VGND VPWR VGND sky130_ef_sc_hd__decap_12
XFILLER_0_1_97 VGND VGND VPWR VPWR sky130_fd_sc_hd__fill_1
XFILLER_0_15_164 VGND VGND VPWR VPWR sky130_fd_sc_hd__decap_4
XFILLER_0_30_134 VGND VGND VPWR VPWR sky130_fd_sc_hd__decap_6
XFILLER_0_38_245 VGND VGND VPWR VPWR sky130_fd_sc_hd__fill_1
XFILLER_0_21_167 VGND VGND VPWR VPWR sky130_fd_sc_hd__fill_1
XFILLER_0_29_245 VGND VGND VPWR VPWR sky130_fd_sc_hd__fill_1
X_1765_ net60 VGND VGND VPWR VPWR _1146_ sky130_fd_sc_hd__inv_1
X_1834_ net32 VGND VGND VPWR VPWR _1350_ sky130_fd_sc_hd__inv_1
X_1696_ _0945_ _0943_ VGND VGND VPWR VPWR _0942_ sky130_fd_sc_hd__and2_0
XFILLER_0_12_123 VGND VGND VPWR VPWR sky130_fd_sc_hd__decap_6
XFILLER_0_35_237 VGND VGND VPWR VPWR sky130_fd_sc_hd__decap_6
Xoutput78 net78 VGND VGND VPWR VPWR result[15] sky130_fd_sc_hd__buf_1
Xoutput89 net89 VGND VGND VPWR VPWR result[25] sky130_fd_sc_hd__buf_1
XFILLER_0_41_229 VGND VGND VPWR VPWR sky130_fd_sc_hd__fill_1
XTAP_TAPCELL_ROW_26_195 VGND VPWR sky130_fd_sc_hd__tapvpwrvgnd_1
X_1550_ net43 _0490_ net66 VGND VGND VPWR VPWR _0494_ sky130_fd_sc_hd__mux2_1
X_1481_ _0299_ net131 net68 VGND VGND VPWR VPWR _0310_ sky130_fd_sc_hd__mux2_1
XFILLER_0_17_237 VGND VGND VPWR VPWR sky130_fd_sc_hd__decap_6
XFILLER_0_4_197 VPWR VGND VPWR VGND sky130_ef_sc_hd__decap_12
X_1748_ _1095_ _1089_ net69 VGND VGND VPWR VPWR _0066_ sky130_fd_sc_hd__mux2_1
X_1817_ _1283_ net124 net68 VGND VGND VPWR VPWR _1294_ sky130_fd_sc_hd__mux2_1
X_1679_ _0860_ _0864_ net68 VGND VGND VPWR VPWR _0890_ sky130_fd_sc_hd__mux2_1
XPHY_EDGE_ROW_37_Left_79 VGND VGND VPWR VPWR sky130_fd_sc_hd__decap_3
XFILLER_0_1_101 VGND VGND VPWR VPWR sky130_fd_sc_hd__decap_8
X_1602_ _0658_ _0656_ VGND VGND VPWR VPWR _0664_ sky130_fd_sc_hd__xor2_1
XFILLER_0_38_41 VPWR VGND VPWR VGND sky130_ef_sc_hd__decap_12
X_1533_ _0416_ _0459_ VGND VGND VPWR VPWR _0456_ sky130_fd_sc_hd__and2_0
XFILLER_0_1_145 VGND VGND VPWR VPWR sky130_fd_sc_hd__fill_2
X_1395_ _0043_ _0068_ _0070_ _0071_ VGND VGND VPWR VPWR _0039_ sky130_fd_sc_hd__nor4_1
X_1464_ _0211_ _0254_ VGND VGND VPWR VPWR _0258_ sky130_fd_sc_hd__xor2_1
XTAP_TAPCELL_ROW_20_168 VGND VPWR sky130_fd_sc_hd__tapvpwrvgnd_1
XTAP_TAPCELL_ROW_5_111 VGND VPWR sky130_fd_sc_hd__tapvpwrvgnd_1
XTAP_TAPCELL_ROW_28_202 VGND VPWR sky130_fd_sc_hd__tapvpwrvgnd_1
XTAP_TAPCELL_ROW_11_135 VGND VPWR sky130_fd_sc_hd__tapvpwrvgnd_1
XFILLER_0_40_53 VPWR VGND VPWR VGND sky130_ef_sc_hd__decap_12
XTAP_TAPCELL_ROW_34_227 VGND VPWR sky130_fd_sc_hd__tapvpwrvgnd_1
X_1516_ _0414_ _0415_ VGND VGND VPWR VPWR _0416_ sky130_fd_sc_hd__lpflow_inputiso1p_1
XFILLER_0_4_97 VGND VGND VPWR VPWR sky130_fd_sc_hd__decap_3
X_1447_ _0207_ _0205_ VGND VGND VPWR VPWR _0209_ sky130_fd_sc_hd__and2_0
XFILLER_0_28_118 VGND VGND VPWR VPWR sky130_fd_sc_hd__fill_1
XFILLER_0_36_195 VGND VGND VPWR VPWR sky130_fd_sc_hd__fill_1
XPHY_EDGE_ROW_24_Left_66 VGND VGND VPWR VPWR sky130_fd_sc_hd__decap_3
XFILLER_0_27_151 VGND VGND VPWR VPWR sky130_fd_sc_hd__fill_1
X_1719__117 VGND VGND VPWR VPWR _1719__117/HI net117 sky130_fd_sc_hd__conb_1
X_1781_ _1191_ _1189_ VGND VGND VPWR VPWR _1192_ sky130_fd_sc_hd__lpflow_inputiso1p_1
XFILLER_0_27_6 VPWR VGND VPWR VGND sky130_ef_sc_hd__decap_12
XFILLER_0_30_146 VGND VGND VPWR VPWR sky130_fd_sc_hd__fill_1
XFILLER_0_21_113 VGND VGND VPWR VPWR sky130_fd_sc_hd__decap_4
XFILLER_0_16_44 VGND VGND VPWR VPWR sky130_fd_sc_hd__decap_3
XFILLER_0_32_54 VGND VGND VPWR VPWR sky130_fd_sc_hd__decap_3
X_1764_ net27 VGND VGND VPWR VPWR _1145_ sky130_fd_sc_hd__inv_1
XFILLER_0_12_113 VGND VGND VPWR VPWR sky130_fd_sc_hd__fill_1
X_1833_ _1311_ _1315_ net68 VGND VGND VPWR VPWR _1341_ sky130_fd_sc_hd__mux2_1
X_1695_ net54 VGND VGND VPWR VPWR _0941_ sky130_fd_sc_hd__inv_1
XFILLER_0_12_168 VGND VGND VPWR VPWR sky130_fd_sc_hd__decap_8
XPHY_EDGE_ROW_11_Left_53 VGND VGND VPWR VPWR sky130_fd_sc_hd__decap_3
XFILLER_0_35_216 VGND VGND VPWR VPWR sky130_fd_sc_hd__decap_8
Xoutput79 net79 VGND VGND VPWR VPWR result[16] sky130_fd_sc_hd__buf_1
XPHY_EDGE_ROW_19_Right_19 VGND VGND VPWR VPWR sky130_fd_sc_hd__decap_3
XFILLER_0_26_216 VPWR VGND VPWR VGND sky130_ef_sc_hd__decap_12
X_1480_ net38 _0285_ net66 VGND VGND VPWR VPWR _0289_ sky130_fd_sc_hd__mux2_1
XPHY_EDGE_ROW_28_Right_28 VGND VGND VPWR VPWR sky130_fd_sc_hd__decap_3
XPHY_EDGE_ROW_37_Right_37 VGND VGND VPWR VPWR sky130_fd_sc_hd__decap_3
X_1747_ _1078_ net119 net68 VGND VGND VPWR VPWR _1089_ sky130_fd_sc_hd__mux2_1
X_1678_ _0890_ _0884_ net69 VGND VGND VPWR VPWR _0061_ sky130_fd_sc_hd__mux2_1
X_1816_ net63 _1269_ net66 VGND VGND VPWR VPWR _1273_ sky130_fd_sc_hd__mux2_1
XFILLER_0_23_208 VGND VGND VPWR VPWR sky130_fd_sc_hd__decap_6
XTAP_TAPCELL_ROW_8_120 VGND VPWR sky130_fd_sc_hd__tapvpwrvgnd_1
XTAP_TAPCELL_ROW_14_144 VGND VPWR sky130_fd_sc_hd__tapvpwrvgnd_1
X_1532_ _0453_ _0451_ VGND VGND VPWR VPWR _0459_ sky130_fd_sc_hd__xor2_1
XFILLER_0_1_113 VPWR VGND VPWR VGND sky130_ef_sc_hd__decap_12
X_1601_ _0658_ _0656_ VGND VGND VPWR VPWR _0660_ sky130_fd_sc_hd__and2_0
XFILLER_0_38_53 VGND VGND VPWR VPWR sky130_fd_sc_hd__decap_4
X_1394_ _0059_ _0062_ _0064_ _0066_ VGND VGND VPWR VPWR _0038_ sky130_fd_sc_hd__nor4_1
X_1463_ _0211_ _0254_ VGND VGND VPWR VPWR _0251_ sky130_fd_sc_hd__and2_0
XTAP_TAPCELL_ROW_37_236 VGND VPWR sky130_fd_sc_hd__tapvpwrvgnd_1
XTAP_TAPCELL_ROW_20_169 VGND VPWR sky130_fd_sc_hd__tapvpwrvgnd_1
XTAP_TAPCELL_ROW_28_203 VGND VPWR sky130_fd_sc_hd__tapvpwrvgnd_1
XFILLER_0_24_22 VGND VGND VPWR VPWR sky130_fd_sc_hd__fill_1
XFILLER_0_40_65 VPWR VGND VPWR VGND sky130_ef_sc_hd__decap_12
X_1515_ _0412_ _0410_ VGND VGND VPWR VPWR _0413_ sky130_fd_sc_hd__lpflow_inputiso1p_1
X_1446_ _0209_ _0210_ VGND VGND VPWR VPWR _0211_ sky130_fd_sc_hd__lpflow_inputiso1p_1
XFILLER_0_36_141 VGND VGND VPWR VPWR sky130_fd_sc_hd__fill_1
XFILLER_0_19_88 VGND VGND VPWR VPWR sky130_fd_sc_hd__decap_8
XFILLER_0_2_241 VGND VGND VPWR VPWR sky130_fd_sc_hd__fill_2
XFILLER_0_27_196 VPWR VGND VPWR VGND sky130_ef_sc_hd__decap_12
X_1429_ net35 VGND VGND VPWR VPWR _0162_ sky130_fd_sc_hd__inv_1
XPHY_EDGE_ROW_41_Left_83 VGND VGND VPWR VPWR sky130_fd_sc_hd__decap_3
XFILLER_0_18_141 VPWR VGND VPWR VGND sky130_ef_sc_hd__decap_12
XFILLER_0_18_163 VGND VGND VPWR VPWR sky130_fd_sc_hd__fill_2
XFILLER_0_33_122 VPWR VGND VPWR VGND sky130_ef_sc_hd__decap_12
X_1780_ _1191_ _1189_ VGND VGND VPWR VPWR _1188_ sky130_fd_sc_hd__and2_0
XFILLER_0_15_111 VGND VGND VPWR VPWR sky130_fd_sc_hd__fill_1
XFILLER_0_15_144 VGND VGND VPWR VPWR sky130_fd_sc_hd__decap_8
XFILLER_0_21_169 VGND VGND VPWR VPWR sky130_fd_sc_hd__fill_2
X_1832_ _1341_ _1335_ net69 VGND VGND VPWR VPWR _0073_ sky130_fd_sc_hd__mux2_1
X_1694_ net21 VGND VGND VPWR VPWR _0940_ sky130_fd_sc_hd__inv_1
X_1763_ _1106_ _1110_ net68 VGND VGND VPWR VPWR _1136_ sky130_fd_sc_hd__mux2_1
XFILLER_0_18_3 VPWR VGND VPWR VGND sky130_ef_sc_hd__decap_12
XFILLER_0_9_6 VGND VGND VPWR VPWR sky130_fd_sc_hd__decap_8
XFILLER_0_11_180 VGND VGND VPWR VPWR sky130_fd_sc_hd__fill_2
XFILLER_0_26_228 VPWR VGND VPWR VGND sky130_ef_sc_hd__decap_12
XFILLER_0_41_209 VGND VGND VPWR VPWR sky130_fd_sc_hd__decap_4
X_1815_ net30 _1268_ net33 VGND VGND VPWR VPWR _1271_ sky130_fd_sc_hd__mux2_1
XFILLER_0_32_209 VPWR VGND VPWR VGND sky130_ef_sc_hd__decap_12
XFILLER_0_4_155 VPWR VGND VPWR VGND sky130_ef_sc_hd__decap_12
X_1746_ net57 _1064_ net66 VGND VGND VPWR VPWR _1068_ sky130_fd_sc_hd__mux2_1
X_1677_ _0873_ net114 net68 VGND VGND VPWR VPWR _0884_ sky130_fd_sc_hd__mux2_1
XFILLER_0_7_3 VPWR VGND VPWR VGND sky130_ef_sc_hd__decap_12
XTAP_TAPCELL_ROW_8_121 VGND VPWR sky130_fd_sc_hd__tapvpwrvgnd_1
XFILLER_0_13_35 VGND VGND VPWR VPWR sky130_fd_sc_hd__decap_3
XFILLER_0_13_57 VGND VGND VPWR VPWR sky130_fd_sc_hd__decap_6
XTAP_TAPCELL_ROW_14_145 VGND VPWR sky130_fd_sc_hd__tapvpwrvgnd_1
X_1531_ _0453_ _0451_ VGND VGND VPWR VPWR _0455_ sky130_fd_sc_hd__and2_0
XFILLER_0_1_125 VPWR VGND VPWR VGND sky130_ef_sc_hd__decap_12
XFILLER_0_1_169 VGND VGND VPWR VPWR sky130_fd_sc_hd__decap_8
XFILLER_0_22_231 VGND VGND VPWR VPWR sky130_fd_sc_hd__fill_2
X_1600_ _0660_ _0661_ VGND VGND VPWR VPWR _0662_ sky130_fd_sc_hd__lpflow_inputiso1p_1
X_1462_ _0248_ _0246_ VGND VGND VPWR VPWR _0254_ sky130_fd_sc_hd__xor2_1
X_1393_ _0051_ _0052_ _0055_ _0058_ VGND VGND VPWR VPWR _0037_ sky130_fd_sc_hd__nor4_1
XTAP_TAPCELL_ROW_37_237 VGND VPWR sky130_fd_sc_hd__tapvpwrvgnd_1
X_1729_ _0580_ _1033_ VGND VGND VPWR VPWR _1030_ sky130_fd_sc_hd__and2_0
XFILLER_0_39_161 VGND VGND VPWR VPWR sky130_fd_sc_hd__decap_6
XFILLER_0_40_88 VPWR VGND VPWR VGND sky130_ef_sc_hd__decap_12
XFILLER_0_40_77 VGND VGND VPWR VPWR sky130_fd_sc_hd__decap_6
XFILLER_0_10_245 VGND VGND VPWR VPWR sky130_fd_sc_hd__fill_1
X_1514_ _0412_ _0410_ VGND VGND VPWR VPWR _0409_ sky130_fd_sc_hd__and2_0
X_1445_ _0207_ _0205_ VGND VGND VPWR VPWR _0208_ sky130_fd_sc_hd__lpflow_inputiso1p_1
XFILLER_0_4_55 VPWR VGND VPWR VGND sky130_ef_sc_hd__decap_12
XFILLER_0_36_197 VPWR VGND VPWR VGND sky130_ef_sc_hd__decap_12
XFILLER_0_36_131 VGND VGND VPWR VPWR sky130_fd_sc_hd__decap_8
XFILLER_0_10_69 VPWR VGND VPWR VGND sky130_ef_sc_hd__decap_12
XFILLER_0_19_34 VGND VGND VPWR VPWR sky130_fd_sc_hd__fill_1
XFILLER_0_35_55 VGND VGND VPWR VPWR sky130_fd_sc_hd__fill_1
XTAP_TAPCELL_ROW_0_84 VGND VPWR sky130_fd_sc_hd__tapvpwrvgnd_1
XFILLER_0_27_131 VPWR VGND VPWR VGND sky130_ef_sc_hd__decap_12
XTAP_TAPCELL_ROW_30_210 VGND VPWR sky130_fd_sc_hd__tapvpwrvgnd_1
X_1428_ net2 VGND VGND VPWR VPWR _0161_ sky130_fd_sc_hd__inv_1
XFILLER_0_33_134 VGND VGND VPWR VPWR sky130_fd_sc_hd__decap_4
XFILLER_0_18_153 VGND VGND VPWR VPWR sky130_fd_sc_hd__decap_4
XFILLER_0_33_167 VGND VGND VPWR VPWR sky130_fd_sc_hd__fill_1
XFILLER_0_21_57 VPWR VGND VPWR VGND sky130_ef_sc_hd__decap_12
XFILLER_0_21_159 VGND VGND VPWR VPWR sky130_fd_sc_hd__decap_8
XFILLER_0_8_109 VPWR VGND VPWR VGND sky130_ef_sc_hd__decap_12
X_1831_ _1324_ net125 net68 VGND VGND VPWR VPWR _1335_ sky130_fd_sc_hd__mux2_1
X_1621__110 VGND VGND VPWR VPWR _1621__110/HI net110 sky130_fd_sc_hd__conb_1
XFILLER_0_32_67 VPWR VGND VPWR VGND sky130_ef_sc_hd__decap_12
X_1762_ _1136_ _1130_ net69 VGND VGND VPWR VPWR _0068_ sky130_fd_sc_hd__mux2_1
X_1693_ _0901_ _0905_ net68 VGND VGND VPWR VPWR _0931_ sky130_fd_sc_hd__mux2_1
XPHY_EDGE_ROW_1_Right_1 VGND VGND VPWR VPWR sky130_fd_sc_hd__decap_3
XFILLER_0_34_240 VGND VGND VPWR VPWR sky130_fd_sc_hd__decap_3
XFILLER_0_27_67 VPWR VGND VPWR VGND sky130_ef_sc_hd__decap_12
XFILLER_0_4_167 VPWR VGND VPWR VGND sky130_ef_sc_hd__decap_12
XFILLER_0_4_112 VPWR VGND VPWR VGND sky130_ef_sc_hd__decap_12
X_1745_ net24 _1063_ net33 VGND VGND VPWR VPWR _1066_ sky130_fd_sc_hd__mux2_1
X_1814_ _1236_ _1279_ VGND VGND VPWR VPWR _1283_ sky130_fd_sc_hd__xor2_1
XFILLER_0_25_240 VGND VGND VPWR VPWR sky130_fd_sc_hd__decap_3
XFILLER_0_40_221 VGND VGND VPWR VPWR sky130_fd_sc_hd__decap_8
XFILLER_0_7_55 VGND VGND VPWR VPWR sky130_fd_sc_hd__fill_1
X_1676_ net52 _0859_ net66 VGND VGND VPWR VPWR _0863_ sky130_fd_sc_hd__mux2_1
XTAP_TAPCELL_ROW_8_122 VGND VPWR sky130_fd_sc_hd__tapvpwrvgnd_1
X_1761__120 VGND VGND VPWR VPWR _1761__120/HI net120 sky130_fd_sc_hd__conb_1
XTAP_TAPCELL_ROW_14_146 VGND VPWR sky130_fd_sc_hd__tapvpwrvgnd_1
X_1530_ _0455_ _0456_ VGND VGND VPWR VPWR _0457_ sky130_fd_sc_hd__lpflow_inputiso1p_1
X_1461_ _0248_ _0246_ VGND VGND VPWR VPWR _0250_ sky130_fd_sc_hd__and2_0
XFILLER_0_1_137 VGND VGND VPWR VPWR sky130_fd_sc_hd__decap_8
X_1392_ _0032_ _0033_ _0034_ _0035_ VGND VGND VPWR VPWR _0036_ sky130_fd_sc_hd__nand4_1
XTAP_TAPCELL_ROW_37_238 VGND VPWR sky130_fd_sc_hd__tapvpwrvgnd_1
X_1728_ _1027_ _1025_ VGND VGND VPWR VPWR _1033_ sky130_fd_sc_hd__xor2_1
XFILLER_0_13_210 VPWR VGND VPWR VGND sky130_ef_sc_hd__decap_12
XFILLER_0_0_181 VGND VGND VPWR VPWR sky130_fd_sc_hd__decap_4
X_1659_ _0785_ _0828_ VGND VGND VPWR VPWR _0825_ sky130_fd_sc_hd__and2_0
XFILLER_0_6_207 VPWR VGND VPWR VGND sky130_ef_sc_hd__decap_12
XFILLER_0_4_67 VGND VGND VPWR VPWR sky130_fd_sc_hd__fill_2
X_1513_ net41 VGND VGND VPWR VPWR _0408_ sky130_fd_sc_hd__inv_1
X_1444_ _0207_ _0205_ VGND VGND VPWR VPWR _0204_ sky130_fd_sc_hd__and2_0
XFILLER_0_36_187 VGND VGND VPWR VPWR sky130_fd_sc_hd__decap_8
X_1537__135 VGND VGND VPWR VPWR _1537__135/HI net135 sky130_fd_sc_hd__conb_1
XFILLER_0_10_26 VGND VGND VPWR VPWR sky130_fd_sc_hd__fill_2
XTAP_TAPCELL_ROW_0_85 VGND VPWR sky130_fd_sc_hd__tapvpwrvgnd_1
XFILLER_0_19_57 VGND VGND VPWR VPWR sky130_fd_sc_hd__decap_3
XFILLER_0_27_143 VGND VGND VPWR VPWR sky130_fd_sc_hd__decap_8
XTAP_TAPCELL_ROW_30_211 VGND VPWR sky130_fd_sc_hd__tapvpwrvgnd_1
XFILLER_0_2_221 VPWR VGND VPWR VGND sky130_ef_sc_hd__decap_12
X_1427_ _0122_ _0126_ net68 VGND VGND VPWR VPWR _0152_ sky130_fd_sc_hd__mux2_1
XFILLER_0_33_113 VGND VGND VPWR VPWR sky130_fd_sc_hd__decap_4
XFILLER_0_18_121 VGND VGND VPWR VPWR sky130_fd_sc_hd__fill_1
XFILLER_0_21_69 VPWR VGND VPWR VGND sky130_ef_sc_hd__decap_12
XFILLER_0_1_35 VGND VGND VPWR VPWR sky130_fd_sc_hd__fill_2
XFILLER_0_1_57 VGND VGND VPWR VPWR sky130_fd_sc_hd__decap_3
XFILLER_0_15_113 VPWR VGND VPWR VGND sky130_ef_sc_hd__decap_12
XFILLER_0_30_105 VGND VGND VPWR VPWR sky130_fd_sc_hd__decap_8
XFILLER_0_21_105 VGND VGND VPWR VPWR sky130_fd_sc_hd__decap_6
X_1761_ _1119_ net120 net68 VGND VGND VPWR VPWR _1130_ sky130_fd_sc_hd__mux2_1