* NGSPICE file created from n_bit_alu.ext - technology: sky130A

* Black-box entry subcircuit for sky130_ef_sc_hd__decap_12 abstract view
.subckt sky130_ef_sc_hd__decap_12 VPWR VGND VPB VNB
.ends

* Black-box entry subcircuit for sky130_fd_sc_hd__dlygate4sd1_1 abstract view
.subckt sky130_fd_sc_hd__dlygate4sd1_1 A VGND VNB VPB VPWR X
.ends

* Black-box entry subcircuit for sky130_fd_sc_hd__fill_1 abstract view
.subckt sky130_fd_sc_hd__fill_1 VGND VNB VPB VPWR
.ends

* Black-box entry subcircuit for sky130_fd_sc_hd__decap_3 abstract view
.subckt sky130_fd_sc_hd__decap_3 VGND VNB VPB VPWR
.ends

* Black-box entry subcircuit for sky130_fd_sc_hd__mux2_1 abstract view
.subckt sky130_fd_sc_hd__mux2_1 A0 A1 S VGND VNB VPB VPWR X
.ends

* Black-box entry subcircuit for sky130_fd_sc_hd__xor2_1 abstract view
.subckt sky130_fd_sc_hd__xor2_1 A B VGND VNB VPB VPWR X
.ends

* Black-box entry subcircuit for sky130_fd_sc_hd__tapvpwrvgnd_1 abstract view
.subckt sky130_fd_sc_hd__tapvpwrvgnd_1 VGND VPWR
.ends

* Black-box entry subcircuit for sky130_fd_sc_hd__buf_8 abstract view
.subckt sky130_fd_sc_hd__buf_8 A VGND VNB VPB VPWR X
.ends

* Black-box entry subcircuit for sky130_fd_sc_hd__clkbuf_2 abstract view
.subckt sky130_fd_sc_hd__clkbuf_2 A VGND VNB VPB VPWR X
.ends

* Black-box entry subcircuit for sky130_fd_sc_hd__decap_4 abstract view
.subckt sky130_fd_sc_hd__decap_4 VGND VNB VPB VPWR
.ends

* Black-box entry subcircuit for sky130_fd_sc_hd__fill_2 abstract view
.subckt sky130_fd_sc_hd__fill_2 VGND VNB VPB VPWR
.ends

* Black-box entry subcircuit for sky130_fd_sc_hd__clkbuf_1 abstract view
.subckt sky130_fd_sc_hd__clkbuf_1 A VGND VNB VPB VPWR X
.ends

* Black-box entry subcircuit for sky130_fd_sc_hd__and2_4 abstract view
.subckt sky130_fd_sc_hd__and2_4 A B VGND VNB VPB VPWR X
.ends

* Black-box entry subcircuit for sky130_fd_sc_hd__decap_8 abstract view
.subckt sky130_fd_sc_hd__decap_8 VGND VNB VPB VPWR
.ends

* Black-box entry subcircuit for sky130_fd_sc_hd__and2_0 abstract view
.subckt sky130_fd_sc_hd__and2_0 A B VGND VNB VPB VPWR X
.ends

* Black-box entry subcircuit for sky130_fd_sc_hd__lpflow_inputiso1p_1 abstract view
.subckt sky130_fd_sc_hd__lpflow_inputiso1p_1 A SLEEP VGND VNB VPB VPWR X
.ends

* Black-box entry subcircuit for sky130_fd_sc_hd__buf_2 abstract view
.subckt sky130_fd_sc_hd__buf_2 A VGND VNB VPB VPWR X
.ends

* Black-box entry subcircuit for sky130_fd_sc_hd__inv_1 abstract view
.subckt sky130_fd_sc_hd__inv_1 A VGND VNB VPB VPWR Y
.ends

* Black-box entry subcircuit for sky130_fd_sc_hd__nor2_1 abstract view
.subckt sky130_fd_sc_hd__nor2_1 A B VGND VNB VPB VPWR Y
.ends

* Black-box entry subcircuit for sky130_fd_sc_hd__clkbuf_4 abstract view
.subckt sky130_fd_sc_hd__clkbuf_4 A VGND VNB VPB VPWR X
.ends

* Black-box entry subcircuit for sky130_fd_sc_hd__decap_6 abstract view
.subckt sky130_fd_sc_hd__decap_6 VGND VNB VPB VPWR
.ends

* Black-box entry subcircuit for sky130_fd_sc_hd__conb_1 abstract view
.subckt sky130_fd_sc_hd__conb_1 VGND VNB VPB VPWR HI LO
.ends

* Black-box entry subcircuit for sky130_fd_sc_hd__nand4_1 abstract view
.subckt sky130_fd_sc_hd__nand4_1 A B C D VGND VNB VPB VPWR Y
.ends

* Black-box entry subcircuit for sky130_fd_sc_hd__nor4_1 abstract view
.subckt sky130_fd_sc_hd__nor4_1 A B C D VGND VNB VPB VPWR Y
.ends

* Black-box entry subcircuit for sky130_fd_sc_hd__mux2_2 abstract view
.subckt sky130_fd_sc_hd__mux2_2 A0 A1 S VGND VNB VPB VPWR X
.ends

* Black-box entry subcircuit for sky130_fd_sc_hd__nor4_4 abstract view
.subckt sky130_fd_sc_hd__nor4_4 A B C D VGND VNB VPB VPWR Y
.ends

* Black-box entry subcircuit for sky130_fd_sc_hd__nor4_2 abstract view
.subckt sky130_fd_sc_hd__nor4_2 A B C D VGND VNB VPB VPWR Y
.ends

* Black-box entry subcircuit for sky130_fd_sc_hd__mux2_4 abstract view
.subckt sky130_fd_sc_hd__mux2_4 A0 A1 S VGND VNB VPB VPWR X
.ends

* Black-box entry subcircuit for sky130_fd_sc_hd__xor2_2 abstract view
.subckt sky130_fd_sc_hd__xor2_2 A B VGND VNB VPB VPWR X
.ends

* Black-box entry subcircuit for sky130_fd_sc_hd__buf_1 abstract view
.subckt sky130_fd_sc_hd__buf_1 A VGND VNB VPB VPWR X
.ends

* Black-box entry subcircuit for sky130_fd_sc_hd__buf_6 abstract view
.subckt sky130_fd_sc_hd__buf_6 A VGND VNB VPB VPWR X
.ends

* Black-box entry subcircuit for sky130_fd_sc_hd__clkbuf_16 abstract view
.subckt sky130_fd_sc_hd__clkbuf_16 A VGND VNB VPB VPWR X
.ends

* Black-box entry subcircuit for sky130_fd_sc_hd__buf_4 abstract view
.subckt sky130_fd_sc_hd__buf_4 A VGND VNB VPB VPWR X
.ends

.subckt n_bit_alu VGND VPWR a[0] a[10] a[11] a[12] a[13] a[14] a[15] a[16] a[17] a[18]
+ a[19] a[1] a[20] a[21] a[22] a[23] a[24] a[25] a[26] a[27] a[28] a[29] a[2] a[30]
+ a[31] a[3] a[4] a[5] a[6] a[7] a[8] a[9] ainv b[0] b[10] b[11] b[12] b[13] b[14]
+ b[15] b[16] b[17] b[18] b[19] b[1] b[20] b[21] b[22] b[23] b[24] b[25] b[26] b[27]
+ b[28] b[29] b[2] b[30] b[31] b[3] b[4] b[5] b[6] b[7] b[8] b[9] binv cin cout fake_clk
+ overflow result[0] result[10] result[11] result[12] result[13] result[14] result[15]
+ result[16] result[17] result[18] result[19] result[1] result[20] result[21] result[22]
+ result[23] result[24] result[25] result[26] result[27] result[28] result[29] result[2]
+ result[30] result[31] result[3] result[4] result[5] result[6] result[7] result[8]
+ result[9] select[0] select[1] zero
XFILLER_0_2_7 VPWR VGND VPWR VGND sky130_ef_sc_hd__decap_12
Xrebuffer7 _0744_ VGND VGND VPWR VPWR net165 sky130_fd_sc_hd__dlygate4sd1_1
XFILLER_0_23_203 VGND VGND VPWR VPWR sky130_fd_sc_hd__fill_1
XFILLER_0_23_225 VGND VGND VPWR VPWR sky130_fd_sc_hd__decap_3
X_1606_ net47 _0654_ net123 VGND VGND VPWR VPWR _0658_ sky130_fd_sc_hd__mux2_1
X_1399_ net70 _0030_ VGND VGND VPWR VPWR net71 sky130_fd_sc_hd__xor2_1
XTAP_TAPCELL_ROW_6_107 VGND VPWR sky130_fd_sc_hd__tapvpwrvgnd_1
Xfanout127 net33 VGND VGND VPWR VPWR net127 sky130_fd_sc_hd__buf_8
X_1468_ _0275_ _0269_ net109 VGND VGND VPWR VPWR _0046_ sky130_fd_sc_hd__mux2_1
Xfanout116 net119 VGND VGND VPWR VPWR net116 sky130_fd_sc_hd__clkbuf_2
X_1537_ _0463_ net158 net117 VGND VGND VPWR VPWR _0474_ sky130_fd_sc_hd__mux2_1
XTAP_TAPCELL_ROW_37_231 VGND VPWR sky130_fd_sc_hd__tapvpwrvgnd_1
XTAP_TAPCELL_ROW_20_164 VGND VPWR sky130_fd_sc_hd__tapvpwrvgnd_1
XFILLER_0_18_29 VGND VGND VPWR VPWR sky130_fd_sc_hd__decap_4
XFILLER_0_11_206 VPWR VGND VPWR VGND sky130_ef_sc_hd__decap_12
XFILLER_0_37_125 VGND VGND VPWR VPWR sky130_fd_sc_hd__fill_1
XFILLER_0_0_29 VGND VGND VPWR VPWR sky130_fd_sc_hd__fill_2
X_1940_ _0066_ VGND VGND VPWR VPWR net95 sky130_fd_sc_hd__clkbuf_1
XFILLER_0_28_114 VGND VGND VPWR VPWR sky130_fd_sc_hd__decap_4
XFILLER_0_36_191 VGND VGND VPWR VPWR sky130_fd_sc_hd__decap_4
XFILLER_0_3_225 VGND VGND VPWR VPWR sky130_fd_sc_hd__decap_3
XFILLER_0_10_85 VGND VGND VPWR VPWR sky130_fd_sc_hd__fill_2
XFILLER_0_36_6 VPWR VGND VPWR VGND sky130_ef_sc_hd__decap_12
XFILLER_0_19_169 VPWR VGND VPWR VGND sky130_ef_sc_hd__decap_12
XFILLER_0_34_139 VGND VGND VPWR VPWR sky130_fd_sc_hd__fill_1
XPHY_EDGE_ROW_8_Left_47 VGND VGND VPWR VPWR sky130_fd_sc_hd__decap_3
XFILLER_0_25_128 VGND VGND VPWR VPWR sky130_fd_sc_hd__fill_1
X_1785_ _1154_ _1197_ VGND VGND VPWR VPWR _1194_ sky130_fd_sc_hd__and2_4
X_1923_ _0047_ VGND VGND VPWR VPWR net76 sky130_fd_sc_hd__clkbuf_1
XFILLER_0_1_61 VGND VGND VPWR VPWR sky130_fd_sc_hd__fill_1
XFILLER_0_30_153 VPWR VGND VPWR VGND sky130_ef_sc_hd__decap_12
XFILLER_0_26_18 VGND VGND VPWR VPWR sky130_fd_sc_hd__decap_8
XFILLER_0_26_29 VPWR VGND VPWR VGND sky130_ef_sc_hd__decap_12
XFILLER_0_30_186 VGND VGND VPWR VPWR sky130_fd_sc_hd__decap_8
XFILLER_0_30_197 VPWR VGND VPWR VGND sky130_ef_sc_hd__decap_12
X_1570_ _0576_ _0574_ VGND VGND VPWR VPWR _0573_ sky130_fd_sc_hd__and2_0
X_1768_ _1152_ _1153_ VGND VGND VPWR VPWR _1154_ sky130_fd_sc_hd__lpflow_inputiso1p_1
XFILLER_0_12_164 VPWR VGND VPWR VGND sky130_ef_sc_hd__decap_12
X_1837_ _1355_ _1353_ VGND VGND VPWR VPWR _1356_ sky130_fd_sc_hd__lpflow_inputiso1p_1
X_1699_ _0945_ _0943_ VGND VGND VPWR VPWR _0947_ sky130_fd_sc_hd__and2_0
XFILLER_0_12_197 VPWR VGND VPWR VGND sky130_ef_sc_hd__decap_12
XFILLER_0_35_223 VGND VGND VPWR VPWR sky130_fd_sc_hd__fill_1
Xoutput75 net75 VGND VGND VPWR VPWR result[12] sky130_fd_sc_hd__buf_2
Xoutput97 net97 VGND VGND VPWR VPWR result[3] sky130_fd_sc_hd__buf_2
Xoutput86 net86 VGND VGND VPWR VPWR result[22] sky130_fd_sc_hd__buf_2
X_1622_ _0726_ _0720_ net110 VGND VGND VPWR VPWR _0057_ sky130_fd_sc_hd__mux2_1
X_1553_ _0491_ _0495_ net118 VGND VGND VPWR VPWR _0521_ sky130_fd_sc_hd__mux2_1
X_1484_ net6 VGND VGND VPWR VPWR _0325_ sky130_fd_sc_hd__inv_1
XPHY_EDGE_ROW_37_Left_76 VGND VGND VPWR VPWR sky130_fd_sc_hd__decap_3
Xrebuffer8 _0908_ VGND VGND VPWR VPWR net166 sky130_fd_sc_hd__dlygate4sd1_1
XFILLER_0_13_41 VPWR VGND VPWR VGND sky130_ef_sc_hd__decap_12
XFILLER_0_13_74 VPWR VGND VPWR VGND sky130_ef_sc_hd__decap_12
XTAP_TAPCELL_ROW_14_140 VGND VPWR sky130_fd_sc_hd__tapvpwrvgnd_1
X_1536_ net42 _0449_ net122 VGND VGND VPWR VPWR _0453_ sky130_fd_sc_hd__mux2_1
XFILLER_0_1_164 VGND VGND VPWR VPWR sky130_fd_sc_hd__fill_1
X_1605_ net14 _0653_ net127 VGND VGND VPWR VPWR _0656_ sky130_fd_sc_hd__mux2_1
XTAP_TAPCELL_ROW_6_108 VGND VPWR sky130_fd_sc_hd__tapvpwrvgnd_1
X_1398_ _0036_ _0041_ VGND VGND VPWR VPWR net104 sky130_fd_sc_hd__nor2_1
Xfanout117 net119 VGND VGND VPWR VPWR net117 sky130_fd_sc_hd__clkbuf_4
X_1467_ _0258_ net153 net116 VGND VGND VPWR VPWR _0269_ sky130_fd_sc_hd__mux2_1
XTAP_TAPCELL_ROW_37_232 VGND VPWR sky130_fd_sc_hd__tapvpwrvgnd_1
XTAP_TAPCELL_ROW_20_165 VGND VPWR sky130_fd_sc_hd__tapvpwrvgnd_1
XFILLER_0_34_29 VGND VGND VPWR VPWR sky130_fd_sc_hd__decap_3
XFILLER_0_11_218 VGND VGND VPWR VPWR sky130_fd_sc_hd__fill_2
XPHY_EDGE_ROW_12_Right_12 VGND VGND VPWR VPWR sky130_fd_sc_hd__decap_3
X_1519_ _0375_ _0418_ VGND VGND VPWR VPWR _0415_ sky130_fd_sc_hd__and2_4
XPHY_EDGE_ROW_21_Right_21 VGND VGND VPWR VPWR sky130_fd_sc_hd__decap_3
XPHY_EDGE_ROW_30_Right_30 VGND VGND VPWR VPWR sky130_fd_sc_hd__decap_3
XFILLER_0_9_28 VGND VGND VPWR VPWR sky130_fd_sc_hd__decap_8
XFILLER_0_10_53 VGND VGND VPWR VPWR sky130_fd_sc_hd__decap_4
XPHY_EDGE_ROW_24_Left_63 VGND VGND VPWR VPWR sky130_fd_sc_hd__decap_3
XFILLER_0_27_181 VGND VGND VPWR VPWR sky130_fd_sc_hd__decap_6
XFILLER_0_31_19 VPWR VGND VPWR VGND sky130_ef_sc_hd__decap_12
X_1922_ _0046_ VGND VGND VPWR VPWR net75 sky130_fd_sc_hd__clkbuf_1
X_1784_ _1191_ _1189_ VGND VGND VPWR VPWR _1197_ sky130_fd_sc_hd__xor2_1
XFILLER_0_21_30 VGND VGND VPWR VPWR sky130_fd_sc_hd__decap_6
XFILLER_0_24_195 VGND VGND VPWR VPWR sky130_fd_sc_hd__fill_1
XFILLER_0_1_51 VGND VGND VPWR VPWR sky130_fd_sc_hd__decap_4
XFILLER_0_30_165 VPWR VGND VPWR VGND sky130_ef_sc_hd__decap_12
XFILLER_0_21_110 VGND VGND VPWR VPWR sky130_fd_sc_hd__fill_2
XFILLER_0_16_85 VGND VGND VPWR VPWR sky130_fd_sc_hd__fill_1
XPHY_EDGE_ROW_6_Right_6 VGND VGND VPWR VPWR sky130_fd_sc_hd__decap_3
X_1698_ _0947_ _0948_ VGND VGND VPWR VPWR _0949_ sky130_fd_sc_hd__lpflow_inputiso1p_1
X_1767_ _1150_ _1148_ VGND VGND VPWR VPWR _1151_ sky130_fd_sc_hd__lpflow_inputiso1p_1
XFILLER_0_12_176 VPWR VGND VPWR VGND sky130_ef_sc_hd__decap_12
X_1836_ _1355_ _1353_ VGND VGND VPWR VPWR _1352_ sky130_fd_sc_hd__and2_0
XPHY_EDGE_ROW_11_Left_50 VGND VGND VPWR VPWR sky130_fd_sc_hd__decap_3
Xoutput87 net87 VGND VGND VPWR VPWR result[23] sky130_fd_sc_hd__clkbuf_4
Xoutput76 net76 VGND VGND VPWR VPWR result[13] sky130_fd_sc_hd__clkbuf_4
Xoutput98 net98 VGND VGND VPWR VPWR result[4] sky130_fd_sc_hd__buf_2
X_1453__152 VGND VGND VPWR VPWR _1453__152/HI net152 sky130_fd_sc_hd__conb_1
X_1621_ _0709_ net133 net117 VGND VGND VPWR VPWR _0720_ sky130_fd_sc_hd__mux2_1
X_1552_ _0521_ _0515_ net110 VGND VGND VPWR VPWR _0052_ sky130_fd_sc_hd__mux2_1
X_1483_ _0286_ _0290_ net116 VGND VGND VPWR VPWR _0316_ sky130_fd_sc_hd__mux2_1
XFILLER_0_27_51 VGND VGND VPWR VPWR sky130_fd_sc_hd__fill_2
XFILLER_0_7_83 VGND VGND VPWR VPWR sky130_fd_sc_hd__fill_1
XFILLER_0_4_195 VGND VGND VPWR VPWR sky130_fd_sc_hd__fill_1
X_1819_ _1270_ _1274_ net112 VGND VGND VPWR VPWR _1300_ sky130_fd_sc_hd__mux2_1
Xrebuffer9 _0867_ VGND VGND VPWR VPWR net167 sky130_fd_sc_hd__dlygate4sd1_1
XTAP_TAPCELL_ROW_23_174 VGND VPWR sky130_fd_sc_hd__tapvpwrvgnd_1
XFILLER_0_13_53 VGND VGND VPWR VPWR sky130_fd_sc_hd__decap_3
XFILLER_0_13_86 VPWR VGND VPWR VGND sky130_ef_sc_hd__decap_12
XTAP_TAPCELL_ROW_14_141 VGND VPWR sky130_fd_sc_hd__tapvpwrvgnd_1
X_1535_ net9 _0448_ net126 VGND VGND VPWR VPWR _0451_ sky130_fd_sc_hd__mux2_1
XTAP_TAPCELL_ROW_6_109 VGND VPWR sky130_fd_sc_hd__tapvpwrvgnd_1
XFILLER_0_1_187 VPWR VGND VPWR VGND sky130_ef_sc_hd__decap_12
Xfanout107 net69 VGND VGND VPWR VPWR net107 sky130_fd_sc_hd__clkbuf_4
X_1604_ _0621_ _0664_ VGND VGND VPWR VPWR _0668_ sky130_fd_sc_hd__xor2_1
Xfanout118 net119 VGND VGND VPWR VPWR net118 sky130_fd_sc_hd__clkbuf_2
XFILLER_0_38_83 VGND VGND VPWR VPWR sky130_fd_sc_hd__fill_1
XFILLER_0_38_72 VGND VGND VPWR VPWR sky130_fd_sc_hd__fill_1
X_1397_ _0039_ _0038_ _0037_ net105 VGND VGND VPWR VPWR _0041_ sky130_fd_sc_hd__nand4_1
X_1466_ net37 _0244_ net122 VGND VGND VPWR VPWR _0248_ sky130_fd_sc_hd__mux2_1
XTAP_TAPCELL_ROW_37_233 VGND VPWR sky130_fd_sc_hd__tapvpwrvgnd_1
XFILLER_0_34_19 VGND VGND VPWR VPWR sky130_fd_sc_hd__decap_8
XFILLER_0_24_85 VPWR VGND VPWR VGND sky130_ef_sc_hd__decap_12
X_1518_ _0412_ _0410_ VGND VGND VPWR VPWR _0418_ sky130_fd_sc_hd__xor2_1
X_1449_ _0170_ _0213_ VGND VGND VPWR VPWR _0210_ sky130_fd_sc_hd__and2_4
XFILLER_0_37_138 VPWR VGND VPWR VGND sky130_ef_sc_hd__decap_12
XTAP_TAPCELL_ROW_31_206 VGND VPWR sky130_fd_sc_hd__tapvpwrvgnd_1
XFILLER_0_28_149 VGND VGND VPWR VPWR sky130_fd_sc_hd__fill_2
XTAP_TAPCELL_ROW_0_80 VGND VPWR sky130_fd_sc_hd__tapvpwrvgnd_1
XFILLER_0_10_65 VGND VGND VPWR VPWR sky130_fd_sc_hd__fill_1
XFILLER_0_35_84 VPWR VGND VPWR VGND sky130_ef_sc_hd__decap_12
XFILLER_0_29_7 VGND VGND VPWR VPWR sky130_fd_sc_hd__fill_1
XFILLER_0_18_193 VGND VGND VPWR VPWR sky130_fd_sc_hd__decap_3
XFILLER_0_16_108 VGND VGND VPWR VPWR sky130_fd_sc_hd__fill_1
X_1921_ _0045_ VGND VGND VPWR VPWR net74 sky130_fd_sc_hd__clkbuf_1
X_1783_ _1191_ _1189_ VGND VGND VPWR VPWR _1193_ sky130_fd_sc_hd__and2_0
XFILLER_0_21_64 VPWR VGND VPWR VGND sky130_ef_sc_hd__decap_12
XFILLER_0_24_141 VPWR VGND VPWR VGND sky130_ef_sc_hd__decap_12
XFILLER_0_30_177 VGND VGND VPWR VPWR sky130_fd_sc_hd__decap_6
XFILLER_0_38_222 VGND VGND VPWR VPWR sky130_fd_sc_hd__fill_2
XFILLER_0_6_19 VGND VGND VPWR VPWR sky130_fd_sc_hd__decap_4
XFILLER_0_16_42 VGND VGND VPWR VPWR sky130_fd_sc_hd__fill_1
X_1835_ net65 VGND VGND VPWR VPWR _1351_ sky130_fd_sc_hd__inv_1
XFILLER_0_32_41 VGND VGND VPWR VPWR sky130_fd_sc_hd__fill_1
X_1697_ _0945_ _0943_ VGND VGND VPWR VPWR _0946_ sky130_fd_sc_hd__lpflow_inputiso1p_1
X_1766_ _1150_ _1148_ VGND VGND VPWR VPWR _1147_ sky130_fd_sc_hd__and2_0
XFILLER_0_35_225 VGND VGND VPWR VPWR sky130_fd_sc_hd__decap_3
Xoutput77 net77 VGND VGND VPWR VPWR result[14] sky130_fd_sc_hd__clkbuf_4
Xoutput88 net88 VGND VGND VPWR VPWR result[24] sky130_fd_sc_hd__buf_2
Xoutput99 net99 VGND VGND VPWR VPWR result[5] sky130_fd_sc_hd__buf_2
X_1620_ net48 _0695_ net123 VGND VGND VPWR VPWR _0699_ sky130_fd_sc_hd__mux2_1
X_1482_ _0316_ _0310_ net109 VGND VGND VPWR VPWR _0047_ sky130_fd_sc_hd__mux2_1
X_1551_ _0504_ net128 net118 VGND VGND VPWR VPWR _0515_ sky130_fd_sc_hd__mux2_1
XFILLER_0_11_7 VGND VGND VPWR VPWR sky130_fd_sc_hd__decap_8
X_1803__146 VGND VGND VPWR VPWR _1803__146/HI net146 sky130_fd_sc_hd__conb_1
XTAP_TAPCELL_ROW_17_150 VGND VPWR sky130_fd_sc_hd__tapvpwrvgnd_1
XFILLER_0_4_141 VGND VGND VPWR VPWR sky130_fd_sc_hd__decap_4
X_1818_ _1300_ _1294_ net107 VGND VGND VPWR VPWR _0072_ sky130_fd_sc_hd__mux2_1
X_1749_ _1065_ _1069_ net113 VGND VGND VPWR VPWR _1095_ sky130_fd_sc_hd__mux2_1
XTAP_TAPCELL_ROW_9_118 VGND VPWR sky130_fd_sc_hd__tapvpwrvgnd_1
XTAP_TAPCELL_ROW_23_175 VGND VPWR sky130_fd_sc_hd__tapvpwrvgnd_1
XFILLER_0_13_98 VPWR VGND VPWR VGND sky130_ef_sc_hd__decap_12
XFILLER_0_38_62 VGND VGND VPWR VPWR sky130_fd_sc_hd__decap_4
Xfanout119 net68 VGND VGND VPWR VPWR net119 sky130_fd_sc_hd__clkbuf_4
XFILLER_0_1_133 VGND VGND VPWR VPWR sky130_fd_sc_hd__fill_2
XFILLER_0_1_199 VPWR VGND VPWR VGND sky130_ef_sc_hd__decap_12
Xfanout108 net69 VGND VGND VPWR VPWR net108 sky130_fd_sc_hd__clkbuf_2
X_1603_ _0621_ _0664_ VGND VGND VPWR VPWR _0661_ sky130_fd_sc_hd__and2_4
X_1534_ _0416_ _0459_ VGND VGND VPWR VPWR _0463_ sky130_fd_sc_hd__xor2_1
X_1465_ net4 _0243_ net126 VGND VGND VPWR VPWR _0246_ sky130_fd_sc_hd__mux2_1
X_1396_ _0074_ _0044_ _0046_ _0049_ VGND VGND VPWR VPWR _0040_ sky130_fd_sc_hd__nor4_1
XFILLER_0_20_209 VPWR VGND VPWR VGND sky130_ef_sc_hd__decap_12
XFILLER_0_24_53 VGND VGND VPWR VPWR sky130_fd_sc_hd__decap_3
XFILLER_0_24_97 VGND VGND VPWR VPWR sky130_fd_sc_hd__decap_4
XFILLER_0_4_85 VGND VGND VPWR VPWR sky130_fd_sc_hd__fill_1
XFILLER_0_4_63 VGND VGND VPWR VPWR sky130_fd_sc_hd__fill_1
XFILLER_0_4_41 VGND VGND VPWR VPWR sky130_fd_sc_hd__decap_6
X_1448_ _0207_ _0205_ VGND VGND VPWR VPWR _0213_ sky130_fd_sc_hd__xor2_1
X_1517_ _0412_ _0410_ VGND VGND VPWR VPWR _0414_ sky130_fd_sc_hd__and2_0
XFILLER_0_28_139 VGND VGND VPWR VPWR sky130_fd_sc_hd__fill_1
XTAP_TAPCELL_ROW_31_207 VGND VPWR sky130_fd_sc_hd__tapvpwrvgnd_1
XFILLER_0_9_19 VGND VGND VPWR VPWR sky130_fd_sc_hd__fill_2
XTAP_TAPCELL_ROW_0_81 VGND VPWR sky130_fd_sc_hd__tapvpwrvgnd_1
XFILLER_0_19_75 VPWR VGND VPWR VGND sky130_ef_sc_hd__decap_12
XFILLER_0_35_96 VPWR VGND VPWR VGND sky130_ef_sc_hd__decap_12
XFILLER_0_35_52 VGND VGND VPWR VPWR sky130_fd_sc_hd__decap_4
XFILLER_0_19_117 VGND VGND VPWR VPWR sky130_fd_sc_hd__fill_1
XFILLER_0_27_161 VGND VGND VPWR VPWR sky130_fd_sc_hd__decap_6
XFILLER_0_34_109 VPWR VGND VPWR VGND sky130_ef_sc_hd__decap_12
X_1551__128 VGND VGND VPWR VPWR _1551__128/HI net128 sky130_fd_sc_hd__conb_1
XFILLER_0_0_209 VPWR VGND VPWR VGND sky130_ef_sc_hd__decap_12
XFILLER_0_21_54 VGND VGND VPWR VPWR sky130_fd_sc_hd__fill_2
X_1920_ _0044_ VGND VGND VPWR VPWR net73 sky130_fd_sc_hd__clkbuf_1
X_1782_ _1193_ _1194_ VGND VGND VPWR VPWR _1195_ sky130_fd_sc_hd__lpflow_inputiso1p_1
XFILLER_0_21_76 VGND VGND VPWR VPWR sky130_fd_sc_hd__fill_2
XFILLER_0_24_153 VGND VGND VPWR VPWR sky130_fd_sc_hd__decap_6
XFILLER_0_1_97 VPWR VGND VPWR VGND sky130_ef_sc_hd__decap_12
XFILLER_0_15_120 VPWR VGND VPWR VGND sky130_ef_sc_hd__decap_12
XFILLER_0_21_189 VGND VGND VPWR VPWR sky130_fd_sc_hd__fill_1
XFILLER_0_16_76 VGND VGND VPWR VPWR sky130_fd_sc_hd__decap_8
XFILLER_0_16_98 VGND VGND VPWR VPWR sky130_fd_sc_hd__fill_1
X_1765_ net60 VGND VGND VPWR VPWR _1146_ sky130_fd_sc_hd__inv_1
X_1691__138 VGND VGND VPWR VPWR _1691__138/HI net138 sky130_fd_sc_hd__conb_1
X_1834_ net32 VGND VGND VPWR VPWR _1350_ sky130_fd_sc_hd__inv_1
X_1696_ _0945_ _0943_ VGND VGND VPWR VPWR _0942_ sky130_fd_sc_hd__and2_0
Xoutput89 net89 VGND VGND VPWR VPWR result[25] sky130_fd_sc_hd__buf_2
Xoutput78 net78 VGND VGND VPWR VPWR result[15] sky130_fd_sc_hd__buf_2
XFILLER_0_5_109 VGND VGND VPWR VPWR sky130_fd_sc_hd__decap_3
X_1550_ net43 _0490_ net123 VGND VGND VPWR VPWR _0494_ sky130_fd_sc_hd__mux2_1
X_1481_ _0299_ net154 net116 VGND VGND VPWR VPWR _0310_ sky130_fd_sc_hd__mux2_1
XFILLER_0_27_31 VPWR VGND VPWR VGND sky130_ef_sc_hd__decap_12
XTAP_TAPCELL_ROW_17_151 VGND VPWR sky130_fd_sc_hd__tapvpwrvgnd_1
XFILLER_0_17_204 VPWR VGND VPWR VGND sky130_ef_sc_hd__decap_12
X_1748_ _1095_ _1089_ net108 VGND VGND VPWR VPWR _0066_ sky130_fd_sc_hd__mux2_2
XFILLER_0_7_52 VGND VGND VPWR VPWR sky130_fd_sc_hd__decap_4
XFILLER_0_4_131 VGND VGND VPWR VPWR sky130_fd_sc_hd__decap_4
XTAP_TAPCELL_ROW_9_119 VGND VPWR sky130_fd_sc_hd__tapvpwrvgnd_1
X_1817_ _1283_ net147 net112 VGND VGND VPWR VPWR _1294_ sky130_fd_sc_hd__mux2_1
X_1679_ _0860_ _0864_ net114 VGND VGND VPWR VPWR _0890_ sky130_fd_sc_hd__mux2_1
XTAP_TAPCELL_ROW_23_176 VGND VPWR sky130_fd_sc_hd__tapvpwrvgnd_1
XFILLER_0_13_33 VGND VGND VPWR VPWR sky130_fd_sc_hd__fill_1
X_1602_ _0658_ _0656_ VGND VGND VPWR VPWR _0664_ sky130_fd_sc_hd__xor2_1
XFILLER_0_38_85 VGND VGND VPWR VPWR sky130_fd_sc_hd__fill_2
XFILLER_0_38_41 VGND VGND VPWR VPWR sky130_fd_sc_hd__decap_4
XFILLER_0_1_156 VGND VGND VPWR VPWR sky130_fd_sc_hd__decap_8
X_1395_ _0071_ _0068_ _0070_ _0043_ VGND VGND VPWR VPWR _0039_ sky130_fd_sc_hd__nor4_4
Xfanout109 net69 VGND VGND VPWR VPWR net109 sky130_fd_sc_hd__clkbuf_4
X_1464_ _0211_ _0254_ VGND VGND VPWR VPWR _0258_ sky130_fd_sc_hd__xor2_1
X_1533_ _0416_ _0459_ VGND VGND VPWR VPWR _0456_ sky130_fd_sc_hd__and2_4
XFILLER_0_9_223 VGND VGND VPWR VPWR sky130_fd_sc_hd__fill_1
X_1593__131 VGND VGND VPWR VPWR _1593__131/HI net131 sky130_fd_sc_hd__conb_1
X_1516_ _0414_ _0415_ VGND VGND VPWR VPWR _0416_ sky130_fd_sc_hd__lpflow_inputiso1p_1
X_1447_ _0207_ _0205_ VGND VGND VPWR VPWR _0209_ sky130_fd_sc_hd__and2_0
XFILLER_0_37_107 VGND VGND VPWR VPWR sky130_fd_sc_hd__decap_4
XTAP_TAPCELL_ROW_31_208 VGND VPWR sky130_fd_sc_hd__tapvpwrvgnd_1
XFILLER_0_36_195 VGND VGND VPWR VPWR sky130_fd_sc_hd__fill_1
XFILLER_0_10_78 VGND VGND VPWR VPWR sky130_fd_sc_hd__decap_6
XTAP_TAPCELL_ROW_0_82 VGND VPWR sky130_fd_sc_hd__tapvpwrvgnd_1
XFILLER_0_19_87 VPWR VGND VPWR VGND sky130_ef_sc_hd__decap_12
XFILLER_0_35_31 VGND VGND VPWR VPWR sky130_fd_sc_hd__decap_4
XFILLER_0_33_110 VGND VGND VPWR VPWR sky130_fd_sc_hd__fill_2
XFILLER_0_33_165 VGND VGND VPWR VPWR sky130_fd_sc_hd__decap_3
XPHY_EDGE_ROW_28_Left_67 VGND VGND VPWR VPWR sky130_fd_sc_hd__decap_3
X_1781_ _1191_ _1189_ VGND VGND VPWR VPWR _1192_ sky130_fd_sc_hd__lpflow_inputiso1p_1
XFILLER_0_34_7 VPWR VGND VPWR VGND sky130_ef_sc_hd__decap_12
XFILLER_0_15_132 VGND VGND VPWR VPWR sky130_fd_sc_hd__decap_6
XFILLER_0_30_102 VPWR VGND VPWR VGND sky130_ef_sc_hd__decap_12
XFILLER_0_38_202 VPWR VGND VPWR VGND sky130_ef_sc_hd__decap_12
XFILLER_0_21_113 VGND VGND VPWR VPWR sky130_fd_sc_hd__decap_3
XFILLER_0_32_54 VPWR VGND VPWR VGND sky130_ef_sc_hd__decap_12
X_1764_ net27 VGND VGND VPWR VPWR _1145_ sky130_fd_sc_hd__inv_1
X_1833_ _1311_ _1315_ net115 VGND VGND VPWR VPWR _1341_ sky130_fd_sc_hd__mux2_1
X_1695_ net54 VGND VGND VPWR VPWR _0941_ sky130_fd_sc_hd__inv_1
XFILLER_0_20_190 VGND VGND VPWR VPWR sky130_fd_sc_hd__decap_6
XFILLER_0_35_205 VPWR VGND VPWR VGND sky130_ef_sc_hd__decap_12
XFILLER_0_7_195 VGND VGND VPWR VPWR sky130_fd_sc_hd__decap_8
Xoutput79 net79 VGND VGND VPWR VPWR result[16] sky130_fd_sc_hd__clkbuf_4
XPHY_EDGE_ROW_19_Right_19 VGND VGND VPWR VPWR sky130_fd_sc_hd__decap_3
X_1480_ net38 _0285_ net122 VGND VGND VPWR VPWR _0289_ sky130_fd_sc_hd__mux2_1
XPHY_EDGE_ROW_28_Right_28 VGND VGND VPWR VPWR sky130_fd_sc_hd__decap_3
XPHY_EDGE_ROW_37_Right_37 VGND VGND VPWR VPWR sky130_fd_sc_hd__decap_3
XFILLER_0_27_43 VGND VGND VPWR VPWR sky130_fd_sc_hd__decap_8
XTAP_TAPCELL_ROW_17_152 VGND VPWR sky130_fd_sc_hd__tapvpwrvgnd_1
XFILLER_0_17_216 VGND VGND VPWR VPWR sky130_fd_sc_hd__decap_8
X_1747_ _1078_ net142 net113 VGND VGND VPWR VPWR _1089_ sky130_fd_sc_hd__mux2_1
XFILLER_0_7_31 VGND VGND VPWR VPWR sky130_fd_sc_hd__fill_1
XFILLER_0_4_165 VGND VGND VPWR VPWR sky130_fd_sc_hd__fill_2
X_1678_ _0890_ _0884_ net108 VGND VGND VPWR VPWR _0061_ sky130_fd_sc_hd__mux2_1
XPHY_EDGE_ROW_15_Left_54 VGND VGND VPWR VPWR sky130_fd_sc_hd__decap_3
X_1816_ net63 _1269_ net121 VGND VGND VPWR VPWR _1273_ sky130_fd_sc_hd__mux2_1
XTAP_TAPCELL_ROW_23_177 VGND VPWR sky130_fd_sc_hd__tapvpwrvgnd_1
X_1532_ _0453_ _0451_ VGND VGND VPWR VPWR _0459_ sky130_fd_sc_hd__xor2_1
XFILLER_0_1_113 VPWR VGND VPWR VGND sky130_ef_sc_hd__decap_12
X_1601_ _0658_ _0656_ VGND VGND VPWR VPWR _0660_ sky130_fd_sc_hd__and2_0
XFILLER_0_38_97 VGND VGND VPWR VPWR sky130_fd_sc_hd__decap_4
X_1394_ _0059_ _0062_ _0066_ _0064_ VGND VGND VPWR VPWR _0038_ sky130_fd_sc_hd__nor4_2
X_1463_ _0211_ _0254_ VGND VGND VPWR VPWR _0251_ sky130_fd_sc_hd__and2_4
XPHY_EDGE_ROW_0_Left_39 VGND VGND VPWR VPWR sky130_fd_sc_hd__decap_3
X_1515_ _0412_ _0410_ VGND VGND VPWR VPWR _0413_ sky130_fd_sc_hd__lpflow_inputiso1p_1
X_1446_ _0209_ _0210_ VGND VGND VPWR VPWR _0211_ sky130_fd_sc_hd__lpflow_inputiso1p_1
XTAP_TAPCELL_ROW_31_209 VGND VPWR sky130_fd_sc_hd__tapvpwrvgnd_1
XFILLER_0_10_57 VGND VGND VPWR VPWR sky130_fd_sc_hd__fill_1
XTAP_TAPCELL_ROW_0_83 VGND VPWR sky130_fd_sc_hd__tapvpwrvgnd_1
XFILLER_0_19_55 VGND VGND VPWR VPWR sky130_fd_sc_hd__fill_1
XFILLER_0_19_99 VPWR VGND VPWR VGND sky130_ef_sc_hd__decap_12
X_1429_ net35 VGND VGND VPWR VPWR _0162_ sky130_fd_sc_hd__inv_1
XFILLER_0_18_141 VPWR VGND VPWR VGND sky130_ef_sc_hd__decap_12
Xwire105 _0040_ VGND VGND VPWR VPWR net105 sky130_fd_sc_hd__clkbuf_1
XFILLER_0_33_100 VGND VGND VPWR VPWR sky130_fd_sc_hd__fill_1
XFILLER_0_33_177 VGND VGND VPWR VPWR sky130_fd_sc_hd__decap_6
XPHY_EDGE_ROW_3_Left_42 VGND VGND VPWR VPWR sky130_fd_sc_hd__decap_3
X_1780_ _1191_ _1189_ VGND VGND VPWR VPWR _1188_ sky130_fd_sc_hd__and2_0
XFILLER_0_24_111 VPWR VGND VPWR VGND sky130_ef_sc_hd__decap_12
XFILLER_0_1_55 VGND VGND VPWR VPWR sky130_fd_sc_hd__fill_1
XFILLER_0_27_7 VPWR VGND VPWR VGND sky130_ef_sc_hd__decap_12
XFILLER_0_1_77 VPWR VGND VPWR VGND sky130_ef_sc_hd__decap_12
XFILLER_0_15_155 VPWR VGND VPWR VGND sky130_ef_sc_hd__decap_12
XFILLER_0_30_114 VPWR VGND VPWR VGND sky130_ef_sc_hd__decap_12
XFILLER_0_38_225 VGND VGND VPWR VPWR sky130_fd_sc_hd__decap_3
XFILLER_0_38_214 VGND VGND VPWR VPWR sky130_fd_sc_hd__decap_8
XFILLER_0_16_67 VGND VGND VPWR VPWR sky130_fd_sc_hd__decap_4
X_1832_ _1341_ _1335_ net109 VGND VGND VPWR VPWR _0073_ sky130_fd_sc_hd__mux2_1
XFILLER_0_29_225 VGND VGND VPWR VPWR sky130_fd_sc_hd__decap_3
X_1763_ _1106_ _1110_ net111 VGND VGND VPWR VPWR _1136_ sky130_fd_sc_hd__mux2_1
X_1694_ net21 VGND VGND VPWR VPWR _0940_ sky130_fd_sc_hd__inv_1
XFILLER_0_12_136 VGND VGND VPWR VPWR sky130_fd_sc_hd__decap_4
XFILLER_0_18_3 VPWR VGND VPWR VGND sky130_ef_sc_hd__decap_12
XFILLER_0_35_217 VGND VGND VPWR VPWR sky130_fd_sc_hd__decap_6
XFILLER_0_11_180 VPWR VGND VPWR VGND sky130_ef_sc_hd__decap_12
XTAP_TAPCELL_ROW_26_186 VGND VPWR sky130_fd_sc_hd__tapvpwrvgnd_1
XTAP_TAPCELL_ROW_17_153 VGND VPWR sky130_fd_sc_hd__tapvpwrvgnd_1
XFILLER_0_27_77 VGND VGND VPWR VPWR sky130_fd_sc_hd__decap_3
X_1815_ net30 _1268_ net160 VGND VGND VPWR VPWR _1271_ sky130_fd_sc_hd__mux2_1
XFILLER_0_32_209 VPWR VGND VPWR VGND sky130_ef_sc_hd__decap_12
XFILLER_0_4_177 VGND VGND VPWR VPWR sky130_fd_sc_hd__decap_3
X_1746_ net57 _1064_ net121 VGND VGND VPWR VPWR _1068_ sky130_fd_sc_hd__mux2_1
X_1677_ _0873_ net137 net114 VGND VGND VPWR VPWR _0884_ sky130_fd_sc_hd__mux2_1
XPHY_EDGE_ROW_32_Left_71 VGND VGND VPWR VPWR sky130_fd_sc_hd__decap_3
X_1531_ _0453_ _0451_ VGND VGND VPWR VPWR _0455_ sky130_fd_sc_hd__and2_0
XTAP_TAPCELL_ROW_3_94 VGND VPWR sky130_fd_sc_hd__tapvpwrvgnd_1
XFILLER_0_1_125 VGND VGND VPWR VPWR sky130_fd_sc_hd__decap_8
X_1600_ _0660_ _0661_ VGND VGND VPWR VPWR _0662_ sky130_fd_sc_hd__lpflow_inputiso1p_1
X_1462_ _0248_ _0246_ VGND VGND VPWR VPWR _0254_ sky130_fd_sc_hd__xor2_1
X_1393_ _0051_ _0052_ _0055_ _0058_ VGND VGND VPWR VPWR _0037_ sky130_fd_sc_hd__nor4_1
X_1729_ _1033_ _0580_ VGND VGND VPWR VPWR _1030_ sky130_fd_sc_hd__and2_0
XTAP_TAPCELL_ROW_5_102 VGND VPWR sky130_fd_sc_hd__tapvpwrvgnd_1
XTAP_TAPCELL_ROW_11_126 VGND VPWR sky130_fd_sc_hd__tapvpwrvgnd_1
XTAP_TAPCELL_ROW_34_218 VGND VPWR sky130_fd_sc_hd__tapvpwrvgnd_1
X_1514_ _0412_ _0410_ VGND VGND VPWR VPWR _0409_ sky130_fd_sc_hd__and2_0
X_1445_ _0207_ _0205_ VGND VGND VPWR VPWR _0208_ sky130_fd_sc_hd__lpflow_inputiso1p_1
XFILLER_0_36_197 VPWR VGND VPWR VGND sky130_ef_sc_hd__decap_12
XFILLER_0_10_69 VGND VGND VPWR VPWR sky130_fd_sc_hd__decap_4
XTAP_TAPCELL_ROW_0_84 VGND VPWR sky130_fd_sc_hd__tapvpwrvgnd_1
X_1428_ net2 VGND VGND VPWR VPWR _0161_ sky130_fd_sc_hd__inv_1
XFILLER_0_18_153 VPWR VGND VPWR VGND sky130_ef_sc_hd__decap_12
XFILLER_0_18_197 VGND VGND VPWR VPWR sky130_fd_sc_hd__fill_2
Xwire106 _0035_ VGND VGND VPWR VPWR net106 sky130_fd_sc_hd__clkbuf_1
XFILLER_0_24_101 VGND VGND VPWR VPWR sky130_fd_sc_hd__fill_1
XFILLER_0_1_89 VGND VGND VPWR VPWR sky130_fd_sc_hd__decap_4
XFILLER_0_15_167 VGND VGND VPWR VPWR sky130_fd_sc_hd__fill_1
XFILLER_0_30_126 VPWR VGND VPWR VGND sky130_ef_sc_hd__decap_12
XFILLER_0_16_46 VPWR VGND VPWR VGND sky130_ef_sc_hd__decap_12
XFILLER_0_8_109 VPWR VGND VPWR VGND sky130_ef_sc_hd__decap_12
X_1831_ _1324_ net148 net115 VGND VGND VPWR VPWR _1335_ sky130_fd_sc_hd__mux2_1
XFILLER_0_32_78 VGND VGND VPWR VPWR sky130_fd_sc_hd__decap_6
X_1762_ _1136_ _1130_ net107 VGND VGND VPWR VPWR _0068_ sky130_fd_sc_hd__mux2_1
X_1693_ _0901_ _0905_ net113 VGND VGND VPWR VPWR _0931_ sky130_fd_sc_hd__mux2_1
XFILLER_0_7_186 VGND VGND VPWR VPWR sky130_fd_sc_hd__fill_2
XFILLER_0_7_153 VPWR VGND VPWR VGND sky130_ef_sc_hd__decap_12
XPHY_EDGE_ROW_1_Right_1 VGND VGND VPWR VPWR sky130_fd_sc_hd__decap_3
XFILLER_0_11_192 VGND VGND VPWR VPWR sky130_fd_sc_hd__fill_2
XTAP_TAPCELL_ROW_26_187 VGND VPWR sky130_fd_sc_hd__tapvpwrvgnd_1
XFILLER_0_27_89 VGND VGND VPWR VPWR sky130_fd_sc_hd__decap_8
X_1745_ net24 _1063_ net125 VGND VGND VPWR VPWR _1066_ sky130_fd_sc_hd__mux2_1
X_1814_ _1236_ _1279_ VGND VGND VPWR VPWR _1283_ sky130_fd_sc_hd__xor2_1
XFILLER_0_7_66 VGND VGND VPWR VPWR sky130_fd_sc_hd__fill_1
X_1676_ net52 _0859_ net121 VGND VGND VPWR VPWR _0863_ sky130_fd_sc_hd__mux2_1
XTAP_TAPCELL_ROW_3_95 VGND VPWR sky130_fd_sc_hd__tapvpwrvgnd_1
X_1392_ _0033_ _0032_ _0034_ net106 VGND VGND VPWR VPWR _0036_ sky130_fd_sc_hd__nand4_1
X_1461_ _0248_ _0246_ VGND VGND VPWR VPWR _0250_ sky130_fd_sc_hd__and2_0
X_1530_ _0455_ _0456_ VGND VGND VPWR VPWR _0457_ sky130_fd_sc_hd__lpflow_inputiso1p_1
XFILLER_0_9_204 VGND VGND VPWR VPWR sky130_fd_sc_hd__decap_4
X_1728_ _1027_ _1025_ VGND VGND VPWR VPWR _1033_ sky130_fd_sc_hd__xor2_1
XTAP_TAPCELL_ROW_5_103 VGND VPWR sky130_fd_sc_hd__tapvpwrvgnd_1
XFILLER_0_0_181 VGND VGND VPWR VPWR sky130_fd_sc_hd__decap_4
X_1659_ _0785_ _0828_ VGND VGND VPWR VPWR _0825_ sky130_fd_sc_hd__and2_0
XTAP_TAPCELL_ROW_11_127 VGND VPWR sky130_fd_sc_hd__tapvpwrvgnd_1
XTAP_TAPCELL_ROW_34_219 VGND VPWR sky130_fd_sc_hd__tapvpwrvgnd_1
X_1513_ net41 VGND VGND VPWR VPWR _0408_ sky130_fd_sc_hd__inv_1
X_1444_ _0207_ _0205_ VGND VGND VPWR VPWR _0204_ sky130_fd_sc_hd__and2_0
XTAP_TAPCELL_ROW_0_85 VGND VPWR sky130_fd_sc_hd__tapvpwrvgnd_1
XFILLER_0_19_57 VGND VGND VPWR VPWR sky130_fd_sc_hd__decap_6