*SPEF "ieee 1481-1999"
*DESIGN "n_bit_alu"
*DATE "00:11:52 Monday April 07, 2025"
*VENDOR "The OpenROAD Project"
*PROGRAM "OpenROAD"
*VERSION "b16bda7e82721d10566ff7e2b68f1ff0be9f9e38"
*DESIGN_FLOW "NAME_SCOPE LOCAL" "PIN_CAP NONE"
*DIVIDER /
*DELIMITER :
*BUS_DELIMITER []
*T_UNIT 1 NS
*C_UNIT 1 PF
*R_UNIT 1 OHM
*L_UNIT 1 HENRY

*NAME_MAP
*3 a[0]
*4 a[10]
*5 a[11]
*6 a[12]
*7 a[13]
*8 a[14]
*9 a[15]
*10 a[16]
*11 a[17]
*12 a[18]
*13 a[19]
*14 a[1]
*15 a[20]
*16 a[21]
*17 a[22]
*18 a[23]
*19 a[24]
*20 a[25]
*21 a[26]
*22 a[27]
*23 a[28]
*24 a[29]
*25 a[2]
*26 a[30]
*27 a[31]
*28 a[3]
*29 a[4]
*30 a[5]
*31 a[6]
*32 a[7]
*33 a[8]
*34 a[9]
*35 ainv
*36 b[0]
*37 b[10]
*38 b[11]
*39 b[12]
*40 b[13]
*41 b[14]
*42 b[15]
*43 b[16]
*44 b[17]
*45 b[18]
*46 b[19]
*47 b[1]
*48 b[20]
*49 b[21]
*50 b[22]
*51 b[23]
*52 b[24]
*53 b[25]
*54 b[26]
*55 b[27]
*56 b[28]
*57 b[29]
*58 b[2]
*59 b[30]
*60 b[31]
*61 b[3]
*62 b[4]
*63 b[5]
*64 b[6]
*65 b[7]
*66 b[8]
*67 b[9]
*68 binv
*69 cin
*70 cout
*71 fake_clk
*72 overflow
*73 result[0]
*74 result[10]
*75 result[11]
*76 result[12]
*77 result[13]
*78 result[14]
*79 result[15]
*80 result[16]
*81 result[17]
*82 result[18]
*83 result[19]
*84 result[1]
*85 result[20]
*86 result[21]
*87 result[22]
*88 result[23]
*89 result[24]
*90 result[25]
*91 result[26]
*92 result[27]
*93 result[28]
*94 result[29]
*95 result[2]
*96 result[30]
*97 result[31]
*98 result[3]
*99 result[4]
*100 result[5]
*101 result[6]
*102 result[7]
*103 result[8]
*104 result[9]
*105 select[0]
*106 select[1]
*107 zero
*108 _0030_
*109 _0032_
*110 _0033_
*111 _0034_
*112 _0035_
*113 _0036_
*114 _0037_
*115 _0038_
*116 _0039_
*117 _0040_
*118 _0041_
*119 _0043_
*120 _0044_
*121 _0045_
*122 _0046_
*123 _0047_
*124 _0048_
*125 _0049_
*126 _0050_
*127 _0051_
*128 _0052_
*129 _0053_
*130 _0054_
*131 _0055_
*132 _0056_
*133 _0057_
*134 _0058_
*135 _0059_
*136 _0060_
*137 _0061_
*138 _0062_
*139 _0063_
*140 _0064_
*141 _0065_
*142 _0066_
*143 _0067_
*144 _0068_
*145 _0069_
*146 _0070_
*147 _0071_
*148 _0072_
*149 _0073_
*150 _0074_
*151 _0079_
*152 _0080_
*153 _0081_
*154 _0082_
*155 _0084_
*156 _0085_
*157 _0086_
*158 _0087_
*159 _0088_
*160 _0090_
*161 _0094_
*162 _0105_
*163 _0108_
*164 _0111_
*165 _0120_
*166 _0121_
*167 _0122_
*168 _0123_
*169 _0125_
*170 _0126_
*171 _0127_
*172 _0128_
*173 _0131_
*174 _0146_
*175 _0152_
*176 _0161_
*177 _0162_
*178 _0163_
*179 _0164_
*180 _0166_
*181 _0167_
*182 _0168_
*183 _0169_
*184 _0170_
*185 _0172_
*186 _0176_
*187 _0178_
*188 _0187_
*189 _0193_
*190 _0202_
*191 _0203_
*192 _0204_
*193 _0205_
*194 _0207_
*195 _0208_
*196 _0209_
*197 _0210_
*198 _0211_
*199 _0213_
*200 _0217_
*201 _0228_
*202 _0234_
*203 _0243_
*204 _0244_
*205 _0245_
*206 _0246_
*207 _0248_
*208 _0249_
*209 _0250_
*210 _0251_
*211 _0252_
*212 _0254_
*213 _0258_
*214 _0269_
*215 _0275_
*216 _0284_
*217 _0285_
*218 _0286_
*219 _0287_
*220 _0289_
*221 _0290_
*222 _0291_
*223 _0292_
*224 _0293_
*225 _0295_
*226 _0299_
*227 _0310_
*228 _0316_
*229 _0325_
*230 _0326_
*231 _0327_
*232 _0328_
*233 _0330_
*234 _0331_
*235 _0332_
*236 _0333_
*237 _0334_
*238 _0336_
*239 _0340_
*240 _0351_
*241 _0357_
*242 _0366_
*243 _0367_
*244 _0368_
*245 _0369_
*246 _0371_
*247 _0372_
*248 _0373_
*249 _0374_
*250 _0375_
*251 _0377_
*252 _0381_
*253 _0392_
*254 _0398_
*255 _0407_
*256 _0408_
*257 _0409_
*258 _0410_
*259 _0412_
*260 _0413_
*261 _0414_
*262 _0415_
*263 _0416_
*264 _0418_
*265 _0422_
*266 _0433_
*267 _0439_
*268 _0448_
*269 _0449_
*270 _0450_
*271 _0451_
*272 _0453_
*273 _0454_
*274 _0455_
*275 _0456_
*276 _0457_
*277 _0459_
*278 _0463_
*279 _0474_
*280 _0480_
*281 _0489_
*282 _0490_
*283 _0491_
*284 _0492_
*285 _0494_
*286 _0495_
*287 _0496_
*288 _0497_
*289 _0498_
*290 _0500_
*291 _0504_
*292 _0515_
*293 _0521_
*294 _0530_
*295 _0531_
*296 _0532_
*297 _0533_
*298 _0535_
*299 _0536_
*300 _0537_
*301 _0538_
*302 _0539_
*303 _0541_
*304 _0545_
*305 _0556_
*306 _0562_
*307 _0571_
*308 _0572_
*309 _0573_
*310 _0574_
*311 _0576_
*312 _0577_
*313 _0578_
*314 _0579_
*315 _0580_
*316 _0582_
*317 _0586_
*318 _0597_
*319 _0603_
*320 _0612_
*321 _0613_
*322 _0614_
*323 _0615_
*324 _0617_
*325 _0618_
*326 _0619_
*327 _0620_
*328 _0621_
*329 _0623_
*330 _0627_
*331 _0638_
*332 _0644_
*333 _0653_
*334 _0654_
*335 _0655_
*336 _0656_
*337 _0658_
*338 _0659_
*339 _0660_
*340 _0661_
*341 _0662_
*342 _0664_
*343 _0668_
*344 _0679_
*345 _0685_
*346 _0694_
*347 _0695_
*348 _0696_
*349 _0697_
*350 _0699_
*351 _0700_
*352 _0701_
*353 _0702_
*354 _0703_
*355 _0705_
*356 _0709_
*357 _0720_
*358 _0726_
*359 _0735_
*360 _0736_
*361 _0737_
*362 _0738_
*363 _0740_
*364 _0741_
*365 _0742_
*366 _0743_
*367 _0744_
*368 _0746_
*369 _0750_
*370 _0761_
*371 _0767_
*372 _0776_
*373 _0777_
*374 _0778_
*375 _0779_
*376 _0781_
*377 _0782_
*378 _0783_
*379 _0784_
*380 _0785_
*381 _0787_
*382 _0791_
*383 _0802_
*384 _0808_
*385 _0817_
*386 _0818_
*387 _0819_
*388 _0820_
*389 _0822_
*390 _0823_
*391 _0824_
*392 _0825_
*393 _0826_
*394 _0828_
*395 _0832_
*396 _0843_
*397 _0849_
*398 _0858_
*399 _0859_
*400 _0860_
*401 _0861_
*402 _0863_
*403 _0864_
*404 _0865_
*405 _0866_
*406 _0867_
*407 _0869_
*408 _0873_
*409 _0884_
*410 _0890_
*411 _0899_
*412 _0900_
*413 _0901_
*414 _0902_
*415 _0904_
*416 _0905_
*417 _0906_
*418 _0907_
*419 _0908_
*420 _0910_
*421 _0914_
*422 _0925_
*423 _0931_
*424 _0940_
*425 _0941_
*426 _0942_
*427 _0943_
*428 _0945_
*429 _0946_
*430 _0947_
*431 _0948_
*432 _0949_
*433 _0951_
*434 _0955_
*435 _0966_
*436 _0972_
*437 _0981_
*438 _0982_
*439 _0983_
*440 _0984_
*441 _0986_
*442 _0987_
*443 _0988_
*444 _0989_
*445 _0990_
*446 _0992_
*447 _0996_
*448 _1007_
*449 _1013_
*450 _1022_
*451 _1023_
*452 _1024_
*453 _1025_
*454 _1027_
*455 _1028_
*456 _1029_
*457 _1030_
*458 _1031_
*459 _1033_
*460 _1037_
*461 _1048_
*462 _1054_
*463 _1063_
*464 _1064_
*465 _1065_
*466 _1066_
*467 _1068_
*468 _1069_
*469 _1070_
*470 _1071_
*471 _1074_
*472 _1078_
*473 _1089_
*474 _1095_
*475 _1104_
*476 _1105_
*477 _1106_
*478 _1107_
*479 _1109_
*480 _1110_
*481 _1111_
*482 _1112_
*483 _1113_
*484 _1115_
*485 _1119_
*486 _1130_
*487 _1136_
*488 _1145_
*489 _1146_
*490 _1147_
*491 _1148_
*492 _1150_
*493 _1151_
*494 _1152_
*495 _1153_
*496 _1154_
*497 _1156_
*498 _1160_
*499 _1171_
*500 _1177_
*501 _1186_
*502 _1187_
*503 _1188_
*504 _1189_
*505 _1191_
*506 _1192_
*507 _1193_
*508 _1194_
*509 _1195_
*510 _1197_
*511 _1201_
*512 _1212_
*513 _1218_
*514 _1227_
*515 _1228_
*516 _1229_
*517 _1230_
*518 _1232_
*519 _1233_
*520 _1234_
*521 _1235_
*522 _1236_
*523 _1238_
*524 _1242_
*525 _1253_
*526 _1259_
*527 _1268_
*528 _1269_
*529 _1270_
*530 _1271_
*531 _1273_
*532 _1274_
*533 _1275_
*534 _1276_
*535 _1277_
*536 _1279_
*537 _1283_
*538 _1294_
*539 _1300_
*540 _1309_
*541 _1310_
*542 _1311_
*543 _1312_
*544 _1314_
*545 _1315_
*546 _1316_
*547 _1317_
*548 _1318_
*549 _1320_
*550 _1324_
*551 _1335_
*552 _1341_
*553 _1350_
*554 _1351_
*555 _1352_
*556 _1353_
*557 _1355_
*558 _1356_
*559 _1357_
*560 _1358_
*561 _1361_
*562 _1365_
*563 _1376_
*564 _1382_
*565 net1
*566 net10
*567 net100
*568 net101
*569 net102
*570 net103
*571 net104
*572 net105
*573 net106
*574 net107
*575 net108
*576 net109
*577 net11
*578 net110
*579 net111
*580 net112
*581 net113
*582 net114
*583 net115
*584 net116
*585 net117
*586 net118
*587 net119
*588 net12
*589 net120
*590 net121
*591 net122
*592 net123
*593 net124
*594 net125
*595 net126
*596 net127
*597 net128
*598 net129
*599 net13
*600 net130
*601 net131
*602 net132
*603 net133
*604 net134
*605 net135
*606 net14
*607 net15
*608 net16
*609 net17
*610 net18
*611 net19
*612 net2
*613 net20
*614 net21
*615 net22
*616 net23
*617 net24
*618 net25
*619 net26
*620 net27
*621 net28
*622 net29
*623 net3
*624 net30
*625 net31
*626 net32
*627 net33
*628 net34
*629 net35
*630 net36
*631 net37
*632 net38
*633 net39
*634 net4
*635 net40
*636 net41
*637 net42
*638 net43
*639 net44
*640 net45
*641 net46
*642 net47
*643 net48
*644 net49
*645 net5
*646 net50
*647 net51
*648 net52
*649 net53
*650 net54
*651 net55
*652 net56
*653 net57
*654 net58
*655 net59
*656 net6
*657 net60
*658 net61
*659 net62
*660 net63
*661 net64
*662 net65
*663 net66
*664 net67
*665 net68
*666 net69
*667 net7
*668 net70
*669 net71
*670 net72
*671 net73
*672 net74
*673 net75
*674 net76
*675 net77
*676 net78
*677 net79
*678 net8
*679 net80
*680 net81
*681 net82
*682 net83
*683 net84
*684 net85
*685 net86
*686 net87
*687 net88
*688 net89
*689 net9
*690 net90
*691 net91
*692 net92
*693 net93
*694 net94
*695 net95
*696 net96
*697 net97
*698 net98
*699 net99
*700 FILLER_0_0_104
*701 FILLER_0_0_111
*702 FILLER_0_0_113
*703 FILLER_0_0_118
*704 FILLER_0_0_125
*705 FILLER_0_0_132
*706 FILLER_0_0_139
*707 FILLER_0_0_141
*708 FILLER_0_0_146
*709 FILLER_0_0_15
*710 FILLER_0_0_162
*711 FILLER_0_0_167
*712 FILLER_0_0_169
*713 FILLER_0_0_174
*714 FILLER_0_0_181
*715 FILLER_0_0_188
*716 FILLER_0_0_195
*717 FILLER_0_0_197
*718 FILLER_0_0_202
*719 FILLER_0_0_209
*720 FILLER_0_0_216
*721 FILLER_0_0_223
*722 FILLER_0_0_225
*723 FILLER_0_0_23
*724 FILLER_0_0_237
*725 FILLER_0_0_245
*726 FILLER_0_0_27
*727 FILLER_0_0_29
*728 FILLER_0_0_3
*729 FILLER_0_0_34
*730 FILLER_0_0_50
*731 FILLER_0_0_55
*732 FILLER_0_0_57
*733 FILLER_0_0_62
*734 FILLER_0_0_71
*735 FILLER_0_0_76
*736 FILLER_0_0_83
*737 FILLER_0_0_85
*738 FILLER_0_0_90
*739 FILLER_0_0_97
*740 FILLER_0_10_103
*741 FILLER_0_10_111
*742 FILLER_0_10_123
*743 FILLER_0_10_129
*744 FILLER_0_10_150
*745 FILLER_0_10_154
*746 FILLER_0_10_160
*747 FILLER_0_10_172
*748 FILLER_0_10_18
*749 FILLER_0_10_184
*750 FILLER_0_10_197
*751 FILLER_0_10_209
*752 FILLER_0_10_245
*753 FILLER_0_10_26
*754 FILLER_0_10_29
*755 FILLER_0_10_54
*756 FILLER_0_10_6
*757 FILLER_0_10_69
*758 FILLER_0_10_81
*759 FILLER_0_10_85
*760 FILLER_0_10_97
*761 FILLER_0_11_109
*762 FILLER_0_11_120
*763 FILLER_0_11_128
*764 FILLER_0_11_140
*765 FILLER_0_11_15
*766 FILLER_0_11_152
*767 FILLER_0_11_156
*768 FILLER_0_11_160
*769 FILLER_0_11_172
*770 FILLER_0_11_180
*771 FILLER_0_11_203
*772 FILLER_0_11_218
*773 FILLER_0_11_235
*774 FILLER_0_11_239
*775 FILLER_0_11_27
*776 FILLER_0_11_3
*777 FILLER_0_11_40
*778 FILLER_0_11_46
*779 FILLER_0_11_54
*780 FILLER_0_11_57
*781 FILLER_0_11_69
*782 FILLER_0_11_81
*783 FILLER_0_11_93
*784 FILLER_0_12_113
*785 FILLER_0_12_123
*786 FILLER_0_12_138
*787 FILLER_0_12_141
*788 FILLER_0_12_153
*789 FILLER_0_12_168
*790 FILLER_0_12_176
*791 FILLER_0_12_18
*792 FILLER_0_12_182
*793 FILLER_0_12_194
*794 FILLER_0_12_197
*795 FILLER_0_12_209
*796 FILLER_0_12_221
*797 FILLER_0_12_233
*798 FILLER_0_12_241
*799 FILLER_0_12_26
*800 FILLER_0_12_29
*801 FILLER_0_12_41
*802 FILLER_0_12_53
*803 FILLER_0_12_6
*804 FILLER_0_12_65
*805 FILLER_0_12_71
*806 FILLER_0_12_85
*807 FILLER_0_13_109
*808 FILLER_0_13_113
*809 FILLER_0_13_125
*810 FILLER_0_13_129
*811 FILLER_0_13_142
*812 FILLER_0_13_15
*813 FILLER_0_13_163
*814 FILLER_0_13_167
*815 FILLER_0_13_172
*816 FILLER_0_13_180
*817 FILLER_0_13_186
*818 FILLER_0_13_198
*819 FILLER_0_13_210
*820 FILLER_0_13_222
*821 FILLER_0_13_225
*822 FILLER_0_13_237
*823 FILLER_0_13_27
*824 FILLER_0_13_3
*825 FILLER_0_13_35
*826 FILLER_0_13_50
*827 FILLER_0_13_57
*828 FILLER_0_13_63
*829 FILLER_0_13_72
*830 FILLER_0_13_84
*831 FILLER_0_13_97
*832 FILLER_0_14_109
*833 FILLER_0_14_121
*834 FILLER_0_14_133
*835 FILLER_0_14_139
*836 FILLER_0_14_141
*837 FILLER_0_14_153
*838 FILLER_0_14_164
*839 FILLER_0_14_176
*840 FILLER_0_14_18
*841 FILLER_0_14_183
*842 FILLER_0_14_195
*843 FILLER_0_14_220
*844 FILLER_0_14_242
*845 FILLER_0_14_26
*846 FILLER_0_14_29
*847 FILLER_0_14_53
*848 FILLER_0_14_59
*849 FILLER_0_14_6
*850 FILLER_0_14_81
*851 FILLER_0_14_85
*852 FILLER_0_14_97
*853 FILLER_0_15_105
*854 FILLER_0_15_111
*855 FILLER_0_15_113
*856 FILLER_0_15_125
*857 FILLER_0_15_144
*858 FILLER_0_15_152
*859 FILLER_0_15_164
*860 FILLER_0_15_169
*861 FILLER_0_15_18
*862 FILLER_0_15_181
*863 FILLER_0_15_193
*864 FILLER_0_15_201
*865 FILLER_0_15_206
*866 FILLER_0_15_216
*867 FILLER_0_15_30
*868 FILLER_0_15_38
*869 FILLER_0_15_52
*870 FILLER_0_15_57
*871 FILLER_0_15_6
*872 FILLER_0_15_69
*873 FILLER_0_15_81
*874 FILLER_0_15_93
*875 FILLER_0_16_101
*876 FILLER_0_16_127
*877 FILLER_0_16_139
*878 FILLER_0_16_141
*879 FILLER_0_16_154
*880 FILLER_0_16_165
*881 FILLER_0_16_172
*882 FILLER_0_16_18
*883 FILLER_0_16_180
*884 FILLER_0_16_194
*885 FILLER_0_16_197
*886 FILLER_0_16_209
*887 FILLER_0_16_217
*888 FILLER_0_16_229
*889 FILLER_0_16_235
*890 FILLER_0_16_239
*891 FILLER_0_16_26
*892 FILLER_0_16_29
*893 FILLER_0_16_44
*894 FILLER_0_16_52
*895 FILLER_0_16_6
*896 FILLER_0_16_64
*897 FILLER_0_16_75
*898 FILLER_0_16_83
*899 FILLER_0_16_85
*900 FILLER_0_16_91
*901 FILLER_0_17_104
*902 FILLER_0_17_111
*903 FILLER_0_17_118
*904 FILLER_0_17_132
*905 FILLER_0_17_144
*906 FILLER_0_17_152
*907 FILLER_0_17_167
*908 FILLER_0_17_178
*909 FILLER_0_17_18
*910 FILLER_0_17_184
*911 FILLER_0_17_197
*912 FILLER_0_17_208
*913 FILLER_0_17_220
*914 FILLER_0_17_225
*915 FILLER_0_17_237
*916 FILLER_0_17_26
*917 FILLER_0_17_53
*918 FILLER_0_17_57
*919 FILLER_0_17_6
*920 FILLER_0_17_65
*921 FILLER_0_17_79
*922 FILLER_0_17_91
*923 FILLER_0_18_104
*924 FILLER_0_18_117
*925 FILLER_0_18_121
*926 FILLER_0_18_125
*927 FILLER_0_18_137
*928 FILLER_0_18_141
*929 FILLER_0_18_15
*930 FILLER_0_18_153
*931 FILLER_0_18_157
*932 FILLER_0_18_163
*933 FILLER_0_18_168
*934 FILLER_0_18_180
*935 FILLER_0_18_192
*936 FILLER_0_18_209
*937 FILLER_0_18_219
*938 FILLER_0_18_231
*939 FILLER_0_18_243
*940 FILLER_0_18_27
*941 FILLER_0_18_29
*942 FILLER_0_18_3
*943 FILLER_0_18_35
*944 FILLER_0_18_45
*945 FILLER_0_18_57
*946 FILLER_0_18_77
*947 FILLER_0_18_83
*948 FILLER_0_18_85
*949 FILLER_0_19_104
*950 FILLER_0_19_113
*951 FILLER_0_19_125
*952 FILLER_0_19_133
*953 FILLER_0_19_148
*954 FILLER_0_19_160
*955 FILLER_0_19_169
*956 FILLER_0_19_18
*957 FILLER_0_19_181
*958 FILLER_0_19_189
*959 FILLER_0_19_206
*960 FILLER_0_19_220
*961 FILLER_0_19_225
*962 FILLER_0_19_237
*963 FILLER_0_19_30
*964 FILLER_0_19_34
*965 FILLER_0_19_50
*966 FILLER_0_19_57
*967 FILLER_0_19_6
*968 FILLER_0_19_69
*969 FILLER_0_19_88
*970 FILLER_0_19_96
*971 FILLER_0_1_101
*972 FILLER_0_1_109
*973 FILLER_0_1_113
*974 FILLER_0_1_125
*975 FILLER_0_1_137
*976 FILLER_0_1_145
*977 FILLER_0_1_15
*978 FILLER_0_1_165
*979 FILLER_0_1_169
*980 FILLER_0_1_177
*981 FILLER_0_1_195
*982 FILLER_0_1_207
*983 FILLER_0_1_219
*984 FILLER_0_1_223
*985 FILLER_0_1_225
*986 FILLER_0_1_237
*987 FILLER_0_1_27
*988 FILLER_0_1_3
*989 FILLER_0_1_35
*990 FILLER_0_1_52
*991 FILLER_0_1_57
*992 FILLER_0_1_81
*993 FILLER_0_1_93
*994 FILLER_0_1_97
*995 FILLER_0_20_109
*996 FILLER_0_20_121
*997 FILLER_0_20_129
*998 FILLER_0_20_139
*999 FILLER_0_20_149
*1000 FILLER_0_20_153
*1001 FILLER_0_20_159
*1002 FILLER_0_20_171
*1003 FILLER_0_20_177
*1004 FILLER_0_20_18
*1005 FILLER_0_20_189
*1006 FILLER_0_20_195
*1007 FILLER_0_20_202
*1008 FILLER_0_20_217
*1009 FILLER_0_20_229
*1010 FILLER_0_20_241
*1011 FILLER_0_20_26
*1012 FILLER_0_20_29
*1013 FILLER_0_20_41
*1014 FILLER_0_20_53
*1015 FILLER_0_20_6
*1016 FILLER_0_20_61
*1017 FILLER_0_20_66
*1018 FILLER_0_20_78
*1019 FILLER_0_20_85
*1020 FILLER_0_20_97
*1021 FILLER_0_21_105
*1022 FILLER_0_21_111
*1023 FILLER_0_21_113
*1024 FILLER_0_21_120
*1025 FILLER_0_21_132
*1026 FILLER_0_21_150
*1027 FILLER_0_21_159
*1028 FILLER_0_21_167
*1029 FILLER_0_21_169
*1030 FILLER_0_21_18
*1031 FILLER_0_21_185
*1032 FILLER_0_21_197
*1033 FILLER_0_21_209
*1034 FILLER_0_21_221
*1035 FILLER_0_21_225
*1036 FILLER_0_21_237
*1037 FILLER_0_21_30
*1038 FILLER_0_21_42
*1039 FILLER_0_21_54
*1040 FILLER_0_21_57
*1041 FILLER_0_21_6
*1042 FILLER_0_21_69
*1043 FILLER_0_21_81
*1044 FILLER_0_21_93
*1045 FILLER_0_22_109
*1046 FILLER_0_22_131
*1047 FILLER_0_22_150
*1048 FILLER_0_22_159
*1049 FILLER_0_22_171
*1050 FILLER_0_22_18
*1051 FILLER_0_22_189
*1052 FILLER_0_22_206
*1053 FILLER_0_22_218
*1054 FILLER_0_22_231
*1055 FILLER_0_22_245
*1056 FILLER_0_22_32
*1057 FILLER_0_22_46
*1058 FILLER_0_22_58
*1059 FILLER_0_22_6
*1060 FILLER_0_22_75
*1061 FILLER_0_22_83
*1062 FILLER_0_22_85
*1063 FILLER_0_22_89
*1064 FILLER_0_23_109
*1065 FILLER_0_23_113
*1066 FILLER_0_23_120
*1067 FILLER_0_23_132
*1068 FILLER_0_23_144
*1069 FILLER_0_23_15
*1070 FILLER_0_23_156
*1071 FILLER_0_23_169
*1072 FILLER_0_23_173
*1073 FILLER_0_23_179
*1074 FILLER_0_23_196
*1075 FILLER_0_23_208
*1076 FILLER_0_23_232
*1077 FILLER_0_23_245
*1078 FILLER_0_23_27
*1079 FILLER_0_23_3
*1080 FILLER_0_23_40
*1081 FILLER_0_23_52
*1082 FILLER_0_23_57
*1083 FILLER_0_23_63
*1084 FILLER_0_23_73
*1085 FILLER_0_23_85
*1086 FILLER_0_24_106
*1087 FILLER_0_24_118
*1088 FILLER_0_24_130
*1089 FILLER_0_24_138
*1090 FILLER_0_24_162
*1091 FILLER_0_24_174
*1092 FILLER_0_24_18
*1093 FILLER_0_24_180
*1094 FILLER_0_24_186
*1095 FILLER_0_24_194
*1096 FILLER_0_24_197
*1097 FILLER_0_24_209
*1098 FILLER_0_24_215
*1099 FILLER_0_24_22
*1100 FILLER_0_24_230
*1101 FILLER_0_24_242
*1102 FILLER_0_24_48
*1103 FILLER_0_24_6
*1104 FILLER_0_24_71
*1105 FILLER_0_24_85
*1106 FILLER_0_25_102
*1107 FILLER_0_25_110
*1108 FILLER_0_25_113
*1109 FILLER_0_25_121
*1110 FILLER_0_25_131
*1111 FILLER_0_25_139
*1112 FILLER_0_25_144
*1113 FILLER_0_25_156
*1114 FILLER_0_25_169
*1115 FILLER_0_25_18
*1116 FILLER_0_25_181
*1117 FILLER_0_25_194
*1118 FILLER_0_25_206
*1119 FILLER_0_25_218
*1120 FILLER_0_25_232
*1121 FILLER_0_25_240
*1122 FILLER_0_25_30
*1123 FILLER_0_25_36
*1124 FILLER_0_25_45
*1125 FILLER_0_25_53
*1126 FILLER_0_25_57
*1127 FILLER_0_25_6
*1128 FILLER_0_25_63
*1129 FILLER_0_25_74
*1130 FILLER_0_25_86
*1131 FILLER_0_25_92
*1132 FILLER_0_26_102
*1133 FILLER_0_26_114
*1134 FILLER_0_26_135
*1135 FILLER_0_26_139
*1136 FILLER_0_26_141
*1137 FILLER_0_26_153
*1138 FILLER_0_26_165
*1139 FILLER_0_26_177
*1140 FILLER_0_26_18
*1141 FILLER_0_26_195
*1142 FILLER_0_26_197
*1143 FILLER_0_26_209
*1144 FILLER_0_26_216
*1145 FILLER_0_26_228
*1146 FILLER_0_26_240
*1147 FILLER_0_26_26
*1148 FILLER_0_26_29
*1149 FILLER_0_26_37
*1150 FILLER_0_26_49
*1151 FILLER_0_26_6
*1152 FILLER_0_26_61
*1153 FILLER_0_26_74
*1154 FILLER_0_26_82
*1155 FILLER_0_26_85
*1156 FILLER_0_26_89
*1157 FILLER_0_27_103
*1158 FILLER_0_27_111
*1159 FILLER_0_27_113
*1160 FILLER_0_27_131
*1161 FILLER_0_27_143
*1162 FILLER_0_27_151
*1163 FILLER_0_27_167
*1164 FILLER_0_27_169
*1165 FILLER_0_27_18
*1166 FILLER_0_27_181
*1167 FILLER_0_27_188
*1168 FILLER_0_27_192
*1169 FILLER_0_27_196
*1170 FILLER_0_27_208
*1171 FILLER_0_27_220
*1172 FILLER_0_27_225
*1173 FILLER_0_27_237
*1174 FILLER_0_27_30
*1175 FILLER_0_27_50
*1176 FILLER_0_27_57
*1177 FILLER_0_27_6
*1178 FILLER_0_27_63
*1179 FILLER_0_27_67
*1180 FILLER_0_27_79
*1181 FILLER_0_27_91
*1182 FILLER_0_28_100
*1183 FILLER_0_28_110
*1184 FILLER_0_28_118
*1185 FILLER_0_28_131
*1186 FILLER_0_28_139
*1187 FILLER_0_28_141
*1188 FILLER_0_28_147
*1189 FILLER_0_28_15
*1190 FILLER_0_28_155
*1191 FILLER_0_28_163
*1192 FILLER_0_28_173
*1193 FILLER_0_28_181
*1194 FILLER_0_28_185
*1195 FILLER_0_28_193
*1196 FILLER_0_28_197
*1197 FILLER_0_28_209
*1198 FILLER_0_28_217
*1199 FILLER_0_28_238
*1200 FILLER_0_28_242
*1201 FILLER_0_28_27
*1202 FILLER_0_28_29
*1203 FILLER_0_28_3
*1204 FILLER_0_28_41
*1205 FILLER_0_28_53
*1206 FILLER_0_28_83
*1207 FILLER_0_28_85
*1208 FILLER_0_28_89
*1209 FILLER_0_28_96
*1210 FILLER_0_29_104
*1211 FILLER_0_29_113
*1212 FILLER_0_29_120
*1213 FILLER_0_29_128
*1214 FILLER_0_29_135
*1215 FILLER_0_29_141
*1216 FILLER_0_29_164
*1217 FILLER_0_29_169
*1218 FILLER_0_29_18
*1219 FILLER_0_29_190
*1220 FILLER_0_29_198
*1221 FILLER_0_29_221
*1222 FILLER_0_29_232
*1223 FILLER_0_29_245
*1224 FILLER_0_29_26
*1225 FILLER_0_29_43
*1226 FILLER_0_29_55
*1227 FILLER_0_29_57
*1228 FILLER_0_29_6
*1229 FILLER_0_29_69
*1230 FILLER_0_29_81
*1231 FILLER_0_29_92
*1232 FILLER_0_2_109
*1233 FILLER_0_2_125
*1234 FILLER_0_2_137
*1235 FILLER_0_2_141
*1236 FILLER_0_2_15
*1237 FILLER_0_2_154
*1238 FILLER_0_2_166
*1239 FILLER_0_2_170
*1240 FILLER_0_2_186
*1241 FILLER_0_2_197
*1242 FILLER_0_2_209
*1243 FILLER_0_2_221
*1244 FILLER_0_2_233
*1245 FILLER_0_2_241
*1246 FILLER_0_2_27
*1247 FILLER_0_2_29
*1248 FILLER_0_2_3
*1249 FILLER_0_2_37
*1250 FILLER_0_2_43
*1251 FILLER_0_2_55
*1252 FILLER_0_2_67
*1253 FILLER_0_2_75
*1254 FILLER_0_2_83
*1255 FILLER_0_2_85
*1256 FILLER_0_2_93
*1257 FILLER_0_30_105
*1258 FILLER_0_30_134
*1259 FILLER_0_30_146
*1260 FILLER_0_30_152
*1261 FILLER_0_30_164
*1262 FILLER_0_30_176
*1263 FILLER_0_30_18
*1264 FILLER_0_30_181
*1265 FILLER_0_30_188
*1266 FILLER_0_30_209
*1267 FILLER_0_30_217
*1268 FILLER_0_30_229
*1269 FILLER_0_30_245
*1270 FILLER_0_30_26
*1271 FILLER_0_30_46
*1272 FILLER_0_30_54
*1273 FILLER_0_30_6
*1274 FILLER_0_30_69
*1275 FILLER_0_30_81
*1276 FILLER_0_30_88
*1277 FILLER_0_30_93
*1278 FILLER_0_31_103
*1279 FILLER_0_31_111
*1280 FILLER_0_31_113
*1281 FILLER_0_31_125
*1282 FILLER_0_31_137
*1283 FILLER_0_31_149
*1284 FILLER_0_31_161
*1285 FILLER_0_31_167
*1286 FILLER_0_31_169
*1287 FILLER_0_31_18
*1288 FILLER_0_31_181
*1289 FILLER_0_31_189
*1290 FILLER_0_31_193
*1291 FILLER_0_31_205
*1292 FILLER_0_31_217
*1293 FILLER_0_31_223
*1294 FILLER_0_31_225
*1295 FILLER_0_31_237
*1296 FILLER_0_31_26
*1297 FILLER_0_31_34
*1298 FILLER_0_31_46
*1299 FILLER_0_31_54
*1300 FILLER_0_31_57
*1301 FILLER_0_31_6
*1302 FILLER_0_31_69
*1303 FILLER_0_31_81
*1304 FILLER_0_31_91
*1305 FILLER_0_32_107
*1306 FILLER_0_32_119
*1307 FILLER_0_32_131
*1308 FILLER_0_32_139
*1309 FILLER_0_32_151
*1310 FILLER_0_32_159
*1311 FILLER_0_32_163
*1312 FILLER_0_32_174
*1313 FILLER_0_32_186
*1314 FILLER_0_32_19
*1315 FILLER_0_32_194
*1316 FILLER_0_32_197
*1317 FILLER_0_32_209
*1318 FILLER_0_32_221
*1319 FILLER_0_32_233
*1320 FILLER_0_32_241
*1321 FILLER_0_32_27
*1322 FILLER_0_32_29
*1323 FILLER_0_32_46
*1324 FILLER_0_32_54
*1325 FILLER_0_32_67
*1326 FILLER_0_32_79
*1327 FILLER_0_32_83
*1328 FILLER_0_32_85
*1329 FILLER_0_33_106
*1330 FILLER_0_33_113
*1331 FILLER_0_33_122
*1332 FILLER_0_33_134
*1333 FILLER_0_33_15
*1334 FILLER_0_33_159
*1335 FILLER_0_33_167
*1336 FILLER_0_33_169
*1337 FILLER_0_33_183
*1338 FILLER_0_33_191
*1339 FILLER_0_33_203
*1340 FILLER_0_33_221
*1341 FILLER_0_33_225
*1342 FILLER_0_33_23
*1343 FILLER_0_33_237
*1344 FILLER_0_33_245
*1345 FILLER_0_33_3
*1346 FILLER_0_33_40
*1347 FILLER_0_33_52
*1348 FILLER_0_33_57
*1349 FILLER_0_33_64
*1350 FILLER_0_33_76
*1351 FILLER_0_33_82
*1352 FILLER_0_33_95
*1353 FILLER_0_34_131
*1354 FILLER_0_34_139
*1355 FILLER_0_34_141
*1356 FILLER_0_34_147
*1357 FILLER_0_34_153
*1358 FILLER_0_34_165
*1359 FILLER_0_34_169
*1360 FILLER_0_34_18
*1361 FILLER_0_34_182
*1362 FILLER_0_34_190
*1363 FILLER_0_34_197
*1364 FILLER_0_34_222
*1365 FILLER_0_34_240
*1366 FILLER_0_34_26
*1367 FILLER_0_34_29
*1368 FILLER_0_34_40
*1369 FILLER_0_34_48
*1370 FILLER_0_34_6
*1371 FILLER_0_34_72
*1372 FILLER_0_34_92
*1373 FILLER_0_35_108
*1374 FILLER_0_35_113
*1375 FILLER_0_35_125
*1376 FILLER_0_35_137
*1377 FILLER_0_35_145
*1378 FILLER_0_35_151
*1379 FILLER_0_35_159
*1380 FILLER_0_35_167
*1381 FILLER_0_35_169
*1382 FILLER_0_35_175
*1383 FILLER_0_35_18
*1384 FILLER_0_35_181
*1385 FILLER_0_35_187
*1386 FILLER_0_35_216
*1387 FILLER_0_35_225
*1388 FILLER_0_35_237
*1389 FILLER_0_35_39
*1390 FILLER_0_35_51
*1391 FILLER_0_35_55
*1392 FILLER_0_35_57
*1393 FILLER_0_35_6
*1394 FILLER_0_35_69
*1395 FILLER_0_35_81
*1396 FILLER_0_35_90
*1397 FILLER_0_35_96
*1398 FILLER_0_36_102
*1399 FILLER_0_36_114
*1400 FILLER_0_36_118
*1401 FILLER_0_36_131
*1402 FILLER_0_36_139
*1403 FILLER_0_36_141
*1404 FILLER_0_36_15
*1405 FILLER_0_36_158
*1406 FILLER_0_36_187
*1407 FILLER_0_36_195
*1408 FILLER_0_36_197
*1409 FILLER_0_36_209
*1410 FILLER_0_36_221
*1411 FILLER_0_36_233
*1412 FILLER_0_36_241
*1413 FILLER_0_36_27
*1414 FILLER_0_36_29
*1415 FILLER_0_36_3
*1416 FILLER_0_36_41
*1417 FILLER_0_36_53
*1418 FILLER_0_36_57
*1419 FILLER_0_36_63
*1420 FILLER_0_36_75
*1421 FILLER_0_36_83
*1422 FILLER_0_36_90
*1423 FILLER_0_37_100
*1424 FILLER_0_37_113
*1425 FILLER_0_37_127
*1426 FILLER_0_37_139
*1427 FILLER_0_37_15
*1428 FILLER_0_37_153
*1429 FILLER_0_37_165
*1430 FILLER_0_37_169
*1431 FILLER_0_37_178
*1432 FILLER_0_37_190
*1433 FILLER_0_37_202
*1434 FILLER_0_37_218
*1435 FILLER_0_37_225
*1436 FILLER_0_37_237
*1437 FILLER_0_37_27
*1438 FILLER_0_37_3
*1439 FILLER_0_37_39
*1440 FILLER_0_37_51
*1441 FILLER_0_37_55
*1442 FILLER_0_37_57
*1443 FILLER_0_37_70
*1444 FILLER_0_37_78
*1445 FILLER_0_38_102
*1446 FILLER_0_38_114
*1447 FILLER_0_38_126
*1448 FILLER_0_38_138
*1449 FILLER_0_38_141
*1450 FILLER_0_38_15
*1451 FILLER_0_38_150
*1452 FILLER_0_38_162
*1453 FILLER_0_38_174
*1454 FILLER_0_38_186
*1455 FILLER_0_38_194
*1456 FILLER_0_38_197
*1457 FILLER_0_38_209
*1458 FILLER_0_38_221
*1459 FILLER_0_38_233
*1460 FILLER_0_38_245
*1461 FILLER_0_38_27
*1462 FILLER_0_38_29
*1463 FILLER_0_38_3
*1464 FILLER_0_38_41
*1465 FILLER_0_38_53
*1466 FILLER_0_38_69
*1467 FILLER_0_38_81
*1468 FILLER_0_38_90
*1469 FILLER_0_39_109
*1470 FILLER_0_39_113
*1471 FILLER_0_39_125
*1472 FILLER_0_39_137
*1473 FILLER_0_39_15
*1474 FILLER_0_39_161
*1475 FILLER_0_39_167
*1476 FILLER_0_39_169
*1477 FILLER_0_39_190
*1478 FILLER_0_39_202
*1479 FILLER_0_39_214
*1480 FILLER_0_39_222
*1481 FILLER_0_39_225
*1482 FILLER_0_39_237
*1483 FILLER_0_39_27
*1484 FILLER_0_39_3
*1485 FILLER_0_39_39
*1486 FILLER_0_39_51
*1487 FILLER_0_39_55
*1488 FILLER_0_39_57
*1489 FILLER_0_39_69
*1490 FILLER_0_39_75
*1491 FILLER_0_39_97
*1492 FILLER_0_3_109
*1493 FILLER_0_3_113
*1494 FILLER_0_3_125
*1495 FILLER_0_3_137
*1496 FILLER_0_3_141
*1497 FILLER_0_3_15
*1498 FILLER_0_3_163
*1499 FILLER_0_3_167
*1500 FILLER_0_3_169
*1501 FILLER_0_3_191
*1502 FILLER_0_3_203
*1503 FILLER_0_3_215
*1504 FILLER_0_3_223
*1505 FILLER_0_3_225
*1506 FILLER_0_3_237
*1507 FILLER_0_3_245
*1508 FILLER_0_3_27
*1509 FILLER_0_3_3
*1510 FILLER_0_3_50
*1511 FILLER_0_3_57
*1512 FILLER_0_3_81
*1513 FILLER_0_3_93
*1514 FILLER_0_40_100
*1515 FILLER_0_40_112
*1516 FILLER_0_40_124
*1517 FILLER_0_40_136
*1518 FILLER_0_40_141
*1519 FILLER_0_40_147
*1520 FILLER_0_40_15
*1521 FILLER_0_40_151
*1522 FILLER_0_40_163
*1523 FILLER_0_40_175
*1524 FILLER_0_40_187
*1525 FILLER_0_40_195
*1526 FILLER_0_40_197
*1527 FILLER_0_40_209
*1528 FILLER_0_40_221
*1529 FILLER_0_40_229
*1530 FILLER_0_40_27
*1531 FILLER_0_40_29
*1532 FILLER_0_40_3
*1533 FILLER_0_40_41
*1534 FILLER_0_40_53
*1535 FILLER_0_40_65
*1536 FILLER_0_40_77
*1537 FILLER_0_40_83
*1538 FILLER_0_40_88
*1539 FILLER_0_41_104
*1540 FILLER_0_41_111
*1541 FILLER_0_41_113
*1542 FILLER_0_41_118
*1543 FILLER_0_41_125
*1544 FILLER_0_41_132
*1545 FILLER_0_41_139
*1546 FILLER_0_41_141
*1547 FILLER_0_41_146
*1548 FILLER_0_41_15
*1549 FILLER_0_41_153
*1550 FILLER_0_41_160
*1551 FILLER_0_41_167
*1552 FILLER_0_41_169
*1553 FILLER_0_41_174
*1554 FILLER_0_41_181
*1555 FILLER_0_41_188
*1556 FILLER_0_41_197
*1557 FILLER_0_41_209
*1558 FILLER_0_41_216
*1559 FILLER_0_41_225
*1560 FILLER_0_41_229
*1561 FILLER_0_41_27
*1562 FILLER_0_41_29
*1563 FILLER_0_41_3
*1564 FILLER_0_41_41
*1565 FILLER_0_41_49
*1566 FILLER_0_41_55
*1567 FILLER_0_41_57
*1568 FILLER_0_41_62
*1569 FILLER_0_41_69
*1570 FILLER_0_41_76
*1571 FILLER_0_41_83
*1572 FILLER_0_41_85
*1573 FILLER_0_41_90
*1574 FILLER_0_41_97
*1575 FILLER_0_4_112
*1576 FILLER_0_4_124
*1577 FILLER_0_4_136
*1578 FILLER_0_4_141
*1579 FILLER_0_4_149
*1580 FILLER_0_4_15
*1581 FILLER_0_4_155
*1582 FILLER_0_4_167
*1583 FILLER_0_4_179
*1584 FILLER_0_4_191
*1585 FILLER_0_4_195
*1586 FILLER_0_4_197
*1587 FILLER_0_4_209
*1588 FILLER_0_4_216
*1589 FILLER_0_4_228
*1590 FILLER_0_4_27
*1591 FILLER_0_4_29
*1592 FILLER_0_4_3
*1593 FILLER_0_4_37
*1594 FILLER_0_4_55
*1595 FILLER_0_4_67
*1596 FILLER_0_4_79
*1597 FILLER_0_4_83
*1598 FILLER_0_4_85
*1599 FILLER_0_4_97
*1600 FILLER_0_5_105
*1601 FILLER_0_5_111
*1602 FILLER_0_5_113
*1603 FILLER_0_5_125
*1604 FILLER_0_5_137
*1605 FILLER_0_5_143
*1606 FILLER_0_5_149
*1607 FILLER_0_5_15
*1608 FILLER_0_5_160
*1609 FILLER_0_5_169
*1610 FILLER_0_5_187
*1611 FILLER_0_5_199
*1612 FILLER_0_5_203
*1613 FILLER_0_5_222
*1614 FILLER_0_5_225
*1615 FILLER_0_5_237
*1616 FILLER_0_5_27
*1617 FILLER_0_5_3
*1618 FILLER_0_5_35
*1619 FILLER_0_5_52
*1620 FILLER_0_5_57
*1621 FILLER_0_5_69
*1622 FILLER_0_5_73
*1623 FILLER_0_5_86
*1624 FILLER_0_5_98
*1625 FILLER_0_6_101
*1626 FILLER_0_6_114
*1627 FILLER_0_6_129
*1628 FILLER_0_6_141
*1629 FILLER_0_6_15
*1630 FILLER_0_6_153
*1631 FILLER_0_6_165
*1632 FILLER_0_6_173
*1633 FILLER_0_6_182
*1634 FILLER_0_6_190
*1635 FILLER_0_6_207
*1636 FILLER_0_6_219
*1637 FILLER_0_6_231
*1638 FILLER_0_6_27
*1639 FILLER_0_6_29
*1640 FILLER_0_6_3
*1641 FILLER_0_6_37
*1642 FILLER_0_6_52
*1643 FILLER_0_6_64
*1644 FILLER_0_6_76
*1645 FILLER_0_6_83
*1646 FILLER_0_6_85
*1647 FILLER_0_6_97
*1648 FILLER_0_7_111
*1649 FILLER_0_7_113
*1650 FILLER_0_7_121
*1651 FILLER_0_7_146
*1652 FILLER_0_7_15
*1653 FILLER_0_7_154
*1654 FILLER_0_7_167
*1655 FILLER_0_7_169
*1656 FILLER_0_7_181
*1657 FILLER_0_7_208
*1658 FILLER_0_7_220
*1659 FILLER_0_7_225
*1660 FILLER_0_7_237
*1661 FILLER_0_7_27
*1662 FILLER_0_7_3
*1663 FILLER_0_7_39
*1664 FILLER_0_7_51
*1665 FILLER_0_7_55
*1666 FILLER_0_7_57
*1667 FILLER_0_7_69
*1668 FILLER_0_7_91
*1669 FILLER_0_8_103
*1670 FILLER_0_8_109
*1671 FILLER_0_8_121
*1672 FILLER_0_8_125
*1673 FILLER_0_8_138
*1674 FILLER_0_8_141
*1675 FILLER_0_8_149
*1676 FILLER_0_8_15
*1677 FILLER_0_8_160
*1678 FILLER_0_8_164
*1679 FILLER_0_8_186
*1680 FILLER_0_8_190
*1681 FILLER_0_8_197
*1682 FILLER_0_8_209
*1683 FILLER_0_8_217
*1684 FILLER_0_8_230
*1685 FILLER_0_8_242
*1686 FILLER_0_8_27
*1687 FILLER_0_8_29
*1688 FILLER_0_8_3
*1689 FILLER_0_8_35
*1690 FILLER_0_8_41
*1691 FILLER_0_8_53
*1692 FILLER_0_8_73
*1693 FILLER_0_8_82
*1694 FILLER_0_8_85
*1695 FILLER_0_8_91
*1696 FILLER_0_8_95
*1697 FILLER_0_9_103
*1698 FILLER_0_9_111
*1699 FILLER_0_9_113
*1700 FILLER_0_9_125
*1701 FILLER_0_9_137
*1702 FILLER_0_9_14
*1703 FILLER_0_9_142
*1704 FILLER_0_9_157
*1705 FILLER_0_9_164
*1706 FILLER_0_9_169
*1707 FILLER_0_9_181
*1708 FILLER_0_9_196
*1709 FILLER_0_9_208
*1710 FILLER_0_9_216
*1711 FILLER_0_9_232
*1712 FILLER_0_9_242
*1713 FILLER_0_9_29
*1714 FILLER_0_9_47
*1715 FILLER_0_9_57
*1716 FILLER_0_9_6
*1717 FILLER_0_9_61
*1718 FILLER_0_9_71
*1719 FILLER_0_9_76
*1720 FILLER_0_9_82
*1721 FILLER_0_9_91