*SPEF "ieee 1481-1999"
*DESIGN "n_bit_alu"
*DATE "23:59:04 Sunday April 06, 2025"
*VENDOR "The OpenROAD Project"
*PROGRAM "OpenROAD"
*VERSION "b16bda7e82721d10566ff7e2b68f1ff0be9f9e38"
*DESIGN_FLOW "NAME_SCOPE LOCAL" "PIN_CAP NONE"
*DIVIDER /
*DELIMITER :
*BUS_DELIMITER []
*T_UNIT 1 NS
*C_UNIT 1 PF
*R_UNIT 1 OHM
*L_UNIT 1 HENRY

*NAME_MAP
*3 a[0]
*4 a[10]
*5 a[11]
*6 a[12]
*7 a[13]
*8 a[14]
*9 a[15]
*10 a[16]
*11 a[17]
*12 a[18]
*13 a[19]
*14 a[1]
*15 a[20]
*16 a[21]
*17 a[22]
*18 a[23]
*19 a[24]
*20 a[25]
*21 a[26]
*22 a[27]
*23 a[28]
*24 a[29]
*25 a[2]
*26 a[30]
*27 a[31]
*28 a[3]
*29 a[4]
*30 a[5]
*31 a[6]
*32 a[7]
*33 a[8]
*34 a[9]
*35 ainv
*36 b[0]
*37 b[10]
*38 b[11]
*39 b[12]
*40 b[13]
*41 b[14]
*42 b[15]
*43 b[16]
*44 b[17]
*45 b[18]
*46 b[19]
*47 b[1]
*48 b[20]
*49 b[21]
*50 b[22]
*51 b[23]
*52 b[24]
*53 b[25]
*54 b[26]
*55 b[27]
*56 b[28]
*57 b[29]
*58 b[2]
*59 b[30]
*60 b[31]
*61 b[3]
*62 b[4]
*63 b[5]
*64 b[6]
*65 b[7]
*66 b[8]
*67 b[9]
*68 binv
*69 cin
*70 cout
*71 fake_clk
*72 overflow
*73 result[0]
*74 result[10]
*75 result[11]
*76 result[12]
*77 result[13]
*78 result[14]
*79 result[15]
*80 result[16]
*81 result[17]
*82 result[18]
*83 result[19]
*84 result[1]
*85 result[20]
*86 result[21]
*87 result[22]
*88 result[23]
*89 result[24]
*90 result[25]
*91 result[26]
*92 result[27]
*93 result[28]
*94 result[29]
*95 result[2]
*96 result[30]
*97 result[31]
*98 result[3]
*99 result[4]
*100 result[5]
*101 result[6]
*102 result[7]
*103 result[8]
*104 result[9]
*105 select[0]
*106 select[1]
*107 zero
*108 _0030_
*109 _0032_
*110 _0033_
*111 _0034_
*112 _0035_
*113 _0036_
*114 _0037_
*115 _0038_
*116 _0039_
*117 _0040_
*118 _0041_
*119 _0043_
*120 _0044_
*121 _0045_
*122 _0046_
*123 _0047_
*124 _0048_
*125 _0049_
*126 _0050_
*127 _0051_
*128 _0052_
*129 _0053_
*130 _0054_
*131 _0055_
*132 _0056_
*133 _0057_
*134 _0058_
*135 _0059_
*136 _0060_
*137 _0061_
*138 _0062_
*139 _0063_
*140 _0064_
*141 _0065_
*142 _0066_
*143 _0067_
*144 _0068_
*145 _0069_
*146 _0070_
*147 _0071_
*148 _0072_
*149 _0073_
*150 _0074_
*151 _0079_
*152 _0080_
*153 _0081_
*154 _0082_
*155 _0084_
*156 _0085_
*157 _0086_
*158 _0087_
*159 _0088_
*160 _0090_
*161 _0094_
*162 _0105_
*163 _0108_
*164 _0111_
*165 _0120_
*166 _0121_
*167 _0122_
*168 _0123_
*169 _0125_
*170 _0126_
*171 _0127_
*172 _0128_
*173 _0131_
*174 _0146_
*175 _0152_
*176 _0161_
*177 _0162_
*178 _0163_
*179 _0164_
*180 _0166_
*181 _0167_
*182 _0168_
*183 _0169_
*184 _0170_
*185 _0172_
*186 _0176_
*187 _0178_
*188 _0187_
*189 _0193_
*190 _0202_
*191 _0203_
*192 _0204_
*193 _0205_
*194 _0207_
*195 _0208_
*196 _0209_
*197 _0210_
*198 _0211_
*199 _0213_
*200 _0217_
*201 _0228_
*202 _0234_
*203 _0243_
*204 _0244_
*205 _0245_
*206 _0246_
*207 _0248_
*208 _0249_
*209 _0250_
*210 _0251_
*211 _0252_
*212 _0254_
*213 _0258_
*214 _0269_
*215 _0275_
*216 _0284_
*217 _0285_
*218 _0286_
*219 _0287_
*220 _0289_
*221 _0290_
*222 _0291_
*223 _0292_
*224 _0293_
*225 _0295_
*226 _0299_
*227 _0310_
*228 _0316_
*229 _0325_
*230 _0326_
*231 _0327_
*232 _0328_
*233 _0330_
*234 _0331_
*235 _0332_
*236 _0333_
*237 _0334_
*238 _0336_
*239 _0340_
*240 _0351_
*241 _0357_
*242 _0366_
*243 _0367_
*244 _0368_
*245 _0369_
*246 _0371_
*247 _0372_
*248 _0373_
*249 _0374_
*250 _0375_
*251 _0377_
*252 _0381_
*253 _0392_
*254 _0398_
*255 _0407_
*256 _0408_
*257 _0409_
*258 _0410_
*259 _0412_
*260 _0413_
*261 _0414_
*262 _0415_
*263 _0416_
*264 _0418_
*265 _0422_
*266 _0433_
*267 _0439_
*268 _0448_
*269 _0449_
*270 _0450_
*271 _0451_
*272 _0453_
*273 _0454_
*274 _0455_
*275 _0456_
*276 _0457_
*277 _0459_
*278 _0463_
*279 _0474_
*280 _0480_
*281 _0489_
*282 _0490_
*283 _0491_
*284 _0492_
*285 _0494_
*286 _0495_
*287 _0496_
*288 _0497_
*289 _0498_
*290 _0500_
*291 _0504_
*292 _0515_
*293 _0521_
*294 _0530_
*295 _0531_
*296 _0532_
*297 _0533_
*298 _0535_
*299 _0536_
*300 _0537_
*301 _0538_
*302 _0539_
*303 _0541_
*304 _0545_
*305 _0556_
*306 _0562_
*307 _0571_
*308 _0572_
*309 _0573_
*310 _0574_
*311 _0576_
*312 _0577_
*313 _0578_
*314 _0579_
*315 _0580_
*316 _0582_
*317 _0586_
*318 _0597_
*319 _0603_
*320 _0612_
*321 _0613_
*322 _0614_
*323 _0615_
*324 _0617_
*325 _0618_
*326 _0619_
*327 _0620_
*328 _0621_
*329 _0623_
*330 _0627_
*331 _0638_
*332 _0644_
*333 _0653_
*334 _0654_
*335 _0655_
*336 _0656_
*337 _0658_
*338 _0659_
*339 _0660_
*340 _0661_
*341 _0662_
*342 _0664_
*343 _0668_
*344 _0679_
*345 _0685_
*346 _0694_
*347 _0695_
*348 _0696_
*349 _0697_
*350 _0699_
*351 _0700_
*352 _0701_
*353 _0702_
*354 _0703_
*355 _0705_
*356 _0709_
*357 _0720_
*358 _0726_
*359 _0735_
*360 _0736_
*361 _0737_
*362 _0738_
*363 _0740_
*364 _0741_
*365 _0742_
*366 _0743_
*367 _0744_
*368 _0746_
*369 _0750_
*370 _0761_
*371 _0767_
*372 _0776_
*373 _0777_
*374 _0778_
*375 _0779_
*376 _0781_
*377 _0782_
*378 _0783_
*379 _0784_
*380 _0785_
*381 _0787_
*382 _0791_
*383 _0802_
*384 _0808_
*385 _0817_
*386 _0818_
*387 _0819_
*388 _0820_
*389 _0822_
*390 _0823_
*391 _0824_
*392 _0825_
*393 _0826_
*394 _0828_
*395 _0832_
*396 _0843_
*397 _0849_
*398 _0858_
*399 _0859_
*400 _0860_
*401 _0861_
*402 _0863_
*403 _0864_
*404 _0865_
*405 _0866_
*406 _0867_
*407 _0869_
*408 _0873_
*409 _0884_
*410 _0890_
*411 _0899_
*412 _0900_
*413 _0901_
*414 _0902_
*415 _0904_
*416 _0905_
*417 _0906_
*418 _0907_
*419 _0908_
*420 _0910_
*421 _0914_
*422 _0925_
*423 _0931_
*424 _0940_
*425 _0941_
*426 _0942_
*427 _0943_
*428 _0945_
*429 _0946_
*430 _0947_
*431 _0948_
*432 _0949_
*433 _0951_
*434 _0955_
*435 _0966_
*436 _0972_
*437 _0981_
*438 _0982_
*439 _0983_
*440 _0984_
*441 _0986_
*442 _0987_
*443 _0988_
*444 _0989_
*445 _0990_
*446 _0992_
*447 _0996_
*448 _1007_
*449 _1013_
*450 _1022_
*451 _1023_
*452 _1024_
*453 _1025_
*454 _1027_
*455 _1028_
*456 _1029_
*457 _1030_
*458 _1031_
*459 _1033_
*460 _1037_
*461 _1048_
*462 _1054_
*463 _1063_
*464 _1064_
*465 _1065_
*466 _1066_
*467 _1068_
*468 _1069_
*469 _1070_
*470 _1071_
*471 _1074_
*472 _1078_
*473 _1089_
*474 _1095_
*475 _1104_
*476 _1105_
*477 _1106_
*478 _1107_
*479 _1109_
*480 _1110_
*481 _1111_
*482 _1112_
*483 _1113_
*484 _1115_
*485 _1119_
*486 _1130_
*487 _1136_
*488 _1145_
*489 _1146_
*490 _1147_
*491 _1148_
*492 _1150_
*493 _1151_
*494 _1152_
*495 _1153_
*496 _1154_
*497 _1156_
*498 _1160_
*499 _1171_
*500 _1177_
*501 _1186_
*502 _1187_
*503 _1188_
*504 _1189_
*505 _1191_
*506 _1192_
*507 _1193_
*508 _1194_
*509 _1195_
*510 _1197_
*511 _1201_
*512 _1212_
*513 _1218_
*514 _1227_
*515 _1228_
*516 _1229_
*517 _1230_
*518 _1232_
*519 _1233_
*520 _1234_
*521 _1235_
*522 _1236_
*523 _1238_
*524 _1242_
*525 _1253_
*526 _1259_
*527 _1268_
*528 _1269_
*529 _1270_
*530 _1271_
*531 _1273_
*532 _1274_
*533 _1275_
*534 _1276_
*535 _1277_
*536 _1279_
*537 _1283_
*538 _1294_
*539 _1300_
*540 _1309_
*541 _1310_
*542 _1311_
*543 _1312_
*544 _1314_
*545 _1315_
*546 _1316_
*547 _1317_
*548 _1318_
*549 _1320_
*550 _1324_
*551 _1335_
*552 _1341_
*553 _1350_
*554 _1351_
*555 _1352_
*556 _1353_
*557 _1355_
*558 _1356_
*559 _1357_
*560 _1358_
*561 _1361_
*562 _1365_
*563 _1376_
*564 _1382_
*565 net1
*566 net10
*567 net100
*568 net101
*569 net102
*570 net103
*571 net104
*572 net105
*573 net106
*574 net107
*575 net108
*576 net109
*577 net11
*578 net110
*579 net111
*580 net112
*581 net113
*582 net114
*583 net115
*584 net116
*585 net117
*586 net118
*587 net119
*588 net12
*589 net120
*590 net121
*591 net122
*592 net123
*593 net124
*594 net125
*595 net126
*596 net127
*597 net128
*598 net129
*599 net13
*600 net130
*601 net131
*602 net132
*603 net133
*604 net134
*605 net135
*606 net136
*607 net137
*608 net138
*609 net139
*610 net14
*611 net140
*612 net141
*613 net142
*614 net143
*615 net144
*616 net145
*617 net146
*618 net147
*619 net148
*620 net149
*621 net15
*622 net150
*623 net151
*624 net152
*625 net153
*626 net154
*627 net155
*628 net156
*629 net157
*630 net158
*631 net159
*632 net16
*633 net160
*634 net161
*635 net162
*636 net163
*637 net164
*638 net165
*639 net166
*640 net167
*641 net168
*642 net169
*643 net17
*644 net18
*645 net19
*646 net2
*647 net20
*648 net21
*649 net22
*650 net23
*651 net24
*652 net25
*653 net26
*654 net27
*655 net28
*656 net29
*657 net3
*658 net30
*659 net31
*660 net32
*661 net33
*662 net34
*663 net35
*664 net36
*665 net37
*666 net38
*667 net39
*668 net4
*669 net40
*670 net41
*671 net42
*672 net43
*673 net44
*674 net45
*675 net46
*676 net47
*677 net48
*678 net49
*679 net5
*680 net50
*681 net51
*682 net52
*683 net53
*684 net54
*685 net55
*686 net56
*687 net57
*688 net58
*689 net59
*690 net6
*691 net60
*692 net61
*693 net62
*694 net63
*695 net64
*696 net65
*697 net66
*698 net67
*699 net68
*700 net69
*701 net7
*702 net70
*703 net71
*704 net72
*705 net73
*706 net74
*707 net75
*708 net76
*709 net77
*710 net78
*711 net79
*712 net8
*713 net80
*714 net81
*715 net82
*716 net83
*717 net84
*718 net85
*719 net86
*720 net87
*721 net88
*722 net89
*723 net9
*724 net90
*725 net91
*726 net92
*727 net93
*728 net94
*729 net95
*730 net96
*731 net97
*732 net98
*733 net99
*734 FILLER_0_0_104
*735 FILLER_0_0_111
*736 FILLER_0_0_113
*737 FILLER_0_0_118
*738 FILLER_0_0_125
*739 FILLER_0_0_135
*740 FILLER_0_0_139
*741 FILLER_0_0_141
*742 FILLER_0_0_147
*743 FILLER_0_0_15
*744 FILLER_0_0_153
*745 FILLER_0_0_161
*746 FILLER_0_0_169
*747 FILLER_0_0_175
*748 FILLER_0_0_181
*749 FILLER_0_0_188
*750 FILLER_0_0_197
*751 FILLER_0_0_202
*752 FILLER_0_0_209
*753 FILLER_0_0_221
*754 FILLER_0_0_225
*755 FILLER_0_0_23
*756 FILLER_0_0_27
*757 FILLER_0_0_29
*758 FILLER_0_0_3
*759 FILLER_0_0_34
*760 FILLER_0_0_41
*761 FILLER_0_0_48
*762 FILLER_0_0_77
*763 FILLER_0_0_85
*764 FILLER_0_0_90
*765 FILLER_0_0_97
*766 FILLER_0_10_121
*767 FILLER_0_10_134
*768 FILLER_0_10_141
*769 FILLER_0_10_145
*770 FILLER_0_10_156
*771 FILLER_0_10_161
*772 FILLER_0_10_165
*773 FILLER_0_10_184
*774 FILLER_0_10_188
*775 FILLER_0_10_206
*776 FILLER_0_10_218
*777 FILLER_0_10_27
*778 FILLER_0_10_3
*779 FILLER_0_10_38
*780 FILLER_0_10_53
*781 FILLER_0_10_57
*782 FILLER_0_10_61
*783 FILLER_0_10_65
*784 FILLER_0_10_69
*785 FILLER_0_10_78
*786 FILLER_0_10_85
*787 FILLER_0_11_106
*788 FILLER_0_11_125
*789 FILLER_0_11_138
*790 FILLER_0_11_146
*791 FILLER_0_11_15
*792 FILLER_0_11_150
*793 FILLER_0_11_162
*794 FILLER_0_11_172
*795 FILLER_0_11_176
*796 FILLER_0_11_180
*797 FILLER_0_11_192
*798 FILLER_0_11_206
*799 FILLER_0_11_218
*800 FILLER_0_11_225
*801 FILLER_0_11_28
*802 FILLER_0_11_37
*803 FILLER_0_11_45
*804 FILLER_0_11_52
*805 FILLER_0_11_57
*806 FILLER_0_11_69
*807 FILLER_0_11_7
*808 FILLER_0_11_78
*809 FILLER_0_12_118
*810 FILLER_0_12_136
*811 FILLER_0_12_141
*812 FILLER_0_12_164
*813 FILLER_0_12_176
*814 FILLER_0_12_19
*815 FILLER_0_12_193
*816 FILLER_0_12_197
*817 FILLER_0_12_209
*818 FILLER_0_12_221
*819 FILLER_0_12_27
*820 FILLER_0_12_29
*821 FILLER_0_12_41
*822 FILLER_0_12_7
*823 FILLER_0_12_74
*824 FILLER_0_12_82
*825 FILLER_0_12_97
*826 FILLER_0_13_110
*827 FILLER_0_13_113
*828 FILLER_0_13_125
*829 FILLER_0_13_137
*830 FILLER_0_13_149
*831 FILLER_0_13_15
*832 FILLER_0_13_157
*833 FILLER_0_13_216
*834 FILLER_0_13_225
*835 FILLER_0_13_27
*836 FILLER_0_13_3
*837 FILLER_0_13_33
*838 FILLER_0_13_41
*839 FILLER_0_13_53
*840 FILLER_0_13_74
*841 FILLER_0_13_86
*842 FILLER_0_13_98
*843 FILLER_0_14_106
*844 FILLER_0_14_118
*845 FILLER_0_14_132
*846 FILLER_0_14_141
*847 FILLER_0_14_152
*848 FILLER_0_14_164
*849 FILLER_0_14_170
*850 FILLER_0_14_26
*851 FILLER_0_14_29
*852 FILLER_0_14_50
*853 FILLER_0_14_7
*854 FILLER_0_14_85
*855 FILLER_0_14_97
*856 FILLER_0_15_113
*857 FILLER_0_15_120
*858 FILLER_0_15_132
*859 FILLER_0_15_155
*860 FILLER_0_15_167
*861 FILLER_0_15_169
*862 FILLER_0_15_181
*863 FILLER_0_15_193
*864 FILLER_0_15_207
*865 FILLER_0_15_212
*866 FILLER_0_15_3
*867 FILLER_0_15_35
*868 FILLER_0_15_54
*869 FILLER_0_15_57
*870 FILLER_0_15_75
*871 FILLER_0_16_108
*872 FILLER_0_16_127
*873 FILLER_0_16_131
*874 FILLER_0_16_162
*875 FILLER_0_16_170
*876 FILLER_0_16_197
*877 FILLER_0_16_209
*878 FILLER_0_16_221
*879 FILLER_0_16_29
*880 FILLER_0_16_3
*881 FILLER_0_16_42
*882 FILLER_0_16_46
*883 FILLER_0_16_58
*884 FILLER_0_16_67
*885 FILLER_0_16_76
*886 FILLER_0_16_85
*887 FILLER_0_16_98
*888 FILLER_0_17_107
*889 FILLER_0_17_111
*890 FILLER_0_17_117
*891 FILLER_0_17_129
*892 FILLER_0_17_13
*893 FILLER_0_17_165
*894 FILLER_0_17_192
*895 FILLER_0_17_204
*896 FILLER_0_17_216
*897 FILLER_0_17_25
*898 FILLER_0_17_37
*899 FILLER_0_17_49
*900 FILLER_0_17_55
*901 FILLER_0_17_57
*902 FILLER_0_17_80
*903 FILLER_0_17_9
*904 FILLER_0_17_93
*905 FILLER_0_18_101
*906 FILLER_0_18_113
*907 FILLER_0_18_121
*908 FILLER_0_18_127
*909 FILLER_0_18_139
*910 FILLER_0_18_141
*911 FILLER_0_18_15
*912 FILLER_0_18_153
*913 FILLER_0_18_165
*914 FILLER_0_18_176
*915 FILLER_0_18_193
*916 FILLER_0_18_197
*917 FILLER_0_18_205
*918 FILLER_0_18_217
*919 FILLER_0_18_225
*920 FILLER_0_18_27
*921 FILLER_0_18_29
*922 FILLER_0_18_3
*923 FILLER_0_18_33
*924 FILLER_0_18_37
*925 FILLER_0_18_41
*926 FILLER_0_18_53
*927 FILLER_0_18_76
*928 FILLER_0_18_85
*929 FILLER_0_18_89
*930 FILLER_0_18_95
*931 FILLER_0_19_111
*932 FILLER_0_19_113
*933 FILLER_0_19_117
*934 FILLER_0_19_135
*935 FILLER_0_19_141
*936 FILLER_0_19_153
*937 FILLER_0_19_165
*938 FILLER_0_19_169
*939 FILLER_0_19_18
*940 FILLER_0_19_181
*941 FILLER_0_19_194
*942 FILLER_0_19_215
*943 FILLER_0_19_223
*944 FILLER_0_19_49
*945 FILLER_0_19_55
*946 FILLER_0_19_57
*947 FILLER_0_19_6
*948 FILLER_0_19_75
*949 FILLER_0_19_87
*950 FILLER_0_19_99
*951 FILLER_0_1_109
*952 FILLER_0_1_113
*953 FILLER_0_1_125
*954 FILLER_0_1_133
*955 FILLER_0_1_15
*956 FILLER_0_1_156
*957 FILLER_0_1_164
*958 FILLER_0_1_187
*959 FILLER_0_1_199
*960 FILLER_0_1_211
*961 FILLER_0_1_223
*962 FILLER_0_1_225
*963 FILLER_0_1_27
*964 FILLER_0_1_3
*965 FILLER_0_1_39
*966 FILLER_0_1_51
*967 FILLER_0_1_55
*968 FILLER_0_1_57
*969 FILLER_0_1_61
*970 FILLER_0_1_77
*971 FILLER_0_1_89
*972 FILLER_0_1_93
*973 FILLER_0_1_97
*974 FILLER_0_20_104
*975 FILLER_0_20_110
*976 FILLER_0_20_132
*977 FILLER_0_20_141
*978 FILLER_0_20_153
*979 FILLER_0_20_166
*980 FILLER_0_20_178
*981 FILLER_0_20_18
*982 FILLER_0_20_190
*983 FILLER_0_20_197
*984 FILLER_0_20_209
*985 FILLER_0_20_221
*986 FILLER_0_20_26
*987 FILLER_0_20_29
*988 FILLER_0_20_58
*989 FILLER_0_20_6
*990 FILLER_0_20_70
*991 FILLER_0_20_82
*992 FILLER_0_21_110
*993 FILLER_0_21_113
*994 FILLER_0_21_130
*995 FILLER_0_21_140
*996 FILLER_0_21_152
*997 FILLER_0_21_18
*998 FILLER_0_21_181
*999 FILLER_0_21_189
*1000 FILLER_0_21_195
*1001 FILLER_0_21_207
*1002 FILLER_0_21_219
*1003 FILLER_0_21_223
*1004 FILLER_0_21_30
*1005 FILLER_0_21_54
*1006 FILLER_0_21_6
*1007 FILLER_0_21_64
*1008 FILLER_0_21_76
*1009 FILLER_0_21_92
*1010 FILLER_0_22_102
*1011 FILLER_0_22_114
*1012 FILLER_0_22_122
*1013 FILLER_0_22_139
*1014 FILLER_0_22_148
*1015 FILLER_0_22_18
*1016 FILLER_0_22_183
*1017 FILLER_0_22_194
*1018 FILLER_0_22_202
*1019 FILLER_0_22_208
*1020 FILLER_0_22_212
*1021 FILLER_0_22_224
*1022 FILLER_0_22_26
*1023 FILLER_0_22_29
*1024 FILLER_0_22_41
*1025 FILLER_0_22_45
*1026 FILLER_0_22_6
*1027 FILLER_0_22_67
*1028 FILLER_0_22_79
*1029 FILLER_0_22_83
*1030 FILLER_0_23_102
*1031 FILLER_0_23_110
*1032 FILLER_0_23_113
*1033 FILLER_0_23_12
*1034 FILLER_0_23_130
*1035 FILLER_0_23_137
*1036 FILLER_0_23_149
*1037 FILLER_0_23_157
*1038 FILLER_0_23_166
*1039 FILLER_0_23_169
*1040 FILLER_0_23_181
*1041 FILLER_0_23_203
*1042 FILLER_0_23_222
*1043 FILLER_0_23_225
*1044 FILLER_0_23_3
*1045 FILLER_0_23_32
*1046 FILLER_0_23_50
*1047 FILLER_0_23_57
*1048 FILLER_0_23_90
*1049 FILLER_0_24_101
*1050 FILLER_0_24_111
*1051 FILLER_0_24_126
*1052 FILLER_0_24_138
*1053 FILLER_0_24_141
*1054 FILLER_0_24_153
*1055 FILLER_0_24_168
*1056 FILLER_0_24_180
*1057 FILLER_0_24_195
*1058 FILLER_0_24_204
*1059 FILLER_0_24_213
*1060 FILLER_0_24_27
*1061 FILLER_0_24_38
*1062 FILLER_0_24_53
*1063 FILLER_0_24_59
*1064 FILLER_0_24_71
*1065 FILLER_0_24_85
*1066 FILLER_0_24_97
*1067 FILLER_0_25_116
*1068 FILLER_0_25_128
*1069 FILLER_0_25_13
*1070 FILLER_0_25_132
*1071 FILLER_0_25_136
*1072 FILLER_0_25_148
*1073 FILLER_0_25_163
*1074 FILLER_0_25_167
*1075 FILLER_0_25_169
*1076 FILLER_0_25_196
*1077 FILLER_0_25_208
*1078 FILLER_0_25_220
*1079 FILLER_0_25_25
*1080 FILLER_0_25_32
*1081 FILLER_0_25_44
*1082 FILLER_0_25_54
*1083 FILLER_0_25_65
*1084 FILLER_0_25_7
*1085 FILLER_0_25_77
*1086 FILLER_0_25_81
*1087 FILLER_0_25_85
*1088 FILLER_0_25_97
*1089 FILLER_0_26_110
*1090 FILLER_0_26_118
*1091 FILLER_0_26_139
*1092 FILLER_0_26_141
*1093 FILLER_0_26_153
*1094 FILLER_0_26_163
*1095 FILLER_0_26_168
*1096 FILLER_0_26_18
*1097 FILLER_0_26_180
*1098 FILLER_0_26_192
*1099 FILLER_0_26_197
*1100 FILLER_0_26_209
*1101 FILLER_0_26_221
*1102 FILLER_0_26_26
*1103 FILLER_0_26_29
*1104 FILLER_0_26_41
*1105 FILLER_0_26_52
*1106 FILLER_0_26_6
*1107 FILLER_0_26_67
*1108 FILLER_0_26_82
*1109 FILLER_0_26_85
*1110 FILLER_0_27_109
*1111 FILLER_0_27_113
*1112 FILLER_0_27_144
*1113 FILLER_0_27_148
*1114 FILLER_0_27_161
*1115 FILLER_0_27_167
*1116 FILLER_0_27_169
*1117 FILLER_0_27_181
*1118 FILLER_0_27_187
*1119 FILLER_0_27_19
*1120 FILLER_0_27_203
*1121 FILLER_0_27_215
*1122 FILLER_0_27_219
*1123 FILLER_0_27_225
*1124 FILLER_0_27_31
*1125 FILLER_0_27_43
*1126 FILLER_0_27_51
*1127 FILLER_0_27_57
*1128 FILLER_0_27_69
*1129 FILLER_0_27_7
*1130 FILLER_0_27_77
*1131 FILLER_0_27_89
*1132 FILLER_0_28_114
*1133 FILLER_0_28_139
*1134 FILLER_0_28_141
*1135 FILLER_0_28_149
*1136 FILLER_0_28_163
*1137 FILLER_0_28_175
*1138 FILLER_0_28_183
*1139 FILLER_0_28_204
*1140 FILLER_0_28_219
*1141 FILLER_0_28_227
*1142 FILLER_0_28_25
*1143 FILLER_0_28_29
*1144 FILLER_0_28_3
*1145 FILLER_0_28_37
*1146 FILLER_0_28_58
*1147 FILLER_0_28_62
*1148 FILLER_0_28_66
*1149 FILLER_0_28_72
*1150 FILLER_0_28_88
*1151 FILLER_0_28_94
*1152 FILLER_0_29_109
*1153 FILLER_0_29_113
*1154 FILLER_0_29_125
*1155 FILLER_0_29_141
*1156 FILLER_0_29_153
*1157 FILLER_0_29_159
*1158 FILLER_0_29_166
*1159 FILLER_0_29_169
*1160 FILLER_0_29_189
*1161 FILLER_0_29_217
*1162 FILLER_0_29_225
*1163 FILLER_0_29_36
*1164 FILLER_0_29_55
*1165 FILLER_0_29_57
*1166 FILLER_0_29_65
*1167 FILLER_0_29_69
*1168 FILLER_0_29_7
*1169 FILLER_0_29_73
*1170 FILLER_0_29_85
*1171 FILLER_0_29_97
*1172 FILLER_0_2_114
*1173 FILLER_0_2_126
*1174 FILLER_0_2_150
*1175 FILLER_0_2_162
*1176 FILLER_0_2_177
*1177 FILLER_0_2_189
*1178 FILLER_0_2_19
*1179 FILLER_0_2_195
*1180 FILLER_0_2_200
*1181 FILLER_0_2_212
*1182 FILLER_0_2_224
*1183 FILLER_0_2_27
*1184 FILLER_0_2_29
*1185 FILLER_0_2_41
*1186 FILLER_0_2_49
*1187 FILLER_0_2_56
*1188 FILLER_0_2_69
*1189 FILLER_0_2_7
*1190 FILLER_0_2_81
*1191 FILLER_0_2_85
*1192 FILLER_0_2_89
*1193 FILLER_0_2_99
*1194 FILLER_0_30_102
*1195 FILLER_0_30_114
*1196 FILLER_0_30_126
*1197 FILLER_0_30_138
*1198 FILLER_0_30_141
*1199 FILLER_0_30_153
*1200 FILLER_0_30_165
*1201 FILLER_0_30_177
*1202 FILLER_0_30_186
*1203 FILLER_0_30_194
*1204 FILLER_0_30_197
*1205 FILLER_0_30_209
*1206 FILLER_0_30_221
*1207 FILLER_0_30_24
*1208 FILLER_0_30_29
*1209 FILLER_0_30_33
*1210 FILLER_0_30_47
*1211 FILLER_0_30_6
*1212 FILLER_0_30_64
*1213 FILLER_0_30_72
*1214 FILLER_0_30_83
*1215 FILLER_0_30_85
*1216 FILLER_0_31_108
*1217 FILLER_0_31_116
*1218 FILLER_0_31_141
*1219 FILLER_0_31_152
*1220 FILLER_0_31_164
*1221 FILLER_0_31_178
*1222 FILLER_0_31_19
*1223 FILLER_0_31_190
*1224 FILLER_0_31_202
*1225 FILLER_0_31_214
*1226 FILLER_0_31_222
*1227 FILLER_0_31_31
*1228 FILLER_0_31_39
*1229 FILLER_0_31_49
*1230 FILLER_0_31_55
*1231 FILLER_0_31_57
*1232 FILLER_0_31_63
*1233 FILLER_0_31_7
*1234 FILLER_0_31_73
*1235 FILLER_0_31_88
*1236 FILLER_0_32_100
*1237 FILLER_0_32_118
*1238 FILLER_0_32_141
*1239 FILLER_0_32_165
*1240 FILLER_0_32_178
*1241 FILLER_0_32_19
*1242 FILLER_0_32_194
*1243 FILLER_0_32_197
*1244 FILLER_0_32_209
*1245 FILLER_0_32_221
*1246 FILLER_0_32_27
*1247 FILLER_0_32_29
*1248 FILLER_0_32_41
*1249 FILLER_0_32_54
*1250 FILLER_0_32_7
*1251 FILLER_0_32_78
*1252 FILLER_0_32_92
*1253 FILLER_0_33_100
*1254 FILLER_0_33_110
*1255 FILLER_0_33_116
*1256 FILLER_0_33_128
*1257 FILLER_0_33_137
*1258 FILLER_0_33_149
*1259 FILLER_0_33_15
*1260 FILLER_0_33_157
*1261 FILLER_0_33_165
*1262 FILLER_0_33_169
*1263 FILLER_0_33_177
*1264 FILLER_0_33_209
*1265 FILLER_0_33_221
*1266 FILLER_0_33_225
*1267 FILLER_0_33_27
*1268 FILLER_0_33_3
*1269 FILLER_0_33_57
*1270 FILLER_0_33_72
*1271 FILLER_0_33_84
*1272 FILLER_0_33_88
*1273 FILLER_0_33_96
*1274 FILLER_0_34_109
*1275 FILLER_0_34_121
*1276 FILLER_0_34_133
*1277 FILLER_0_34_139
*1278 FILLER_0_34_141
*1279 FILLER_0_34_158
*1280 FILLER_0_34_166
*1281 FILLER_0_34_174
*1282 FILLER_0_34_184
*1283 FILLER_0_34_19
*1284 FILLER_0_34_209
*1285 FILLER_0_34_221
*1286 FILLER_0_34_27
*1287 FILLER_0_34_29
*1288 FILLER_0_34_52
*1289 FILLER_0_34_64
*1290 FILLER_0_34_7
*1291 FILLER_0_34_72
*1292 FILLER_0_34_79
*1293 FILLER_0_34_83
*1294 FILLER_0_34_85
*1295 FILLER_0_34_97
*1296 FILLER_0_35_108
*1297 FILLER_0_35_113
*1298 FILLER_0_35_137
*1299 FILLER_0_35_149
*1300 FILLER_0_35_155
*1301 FILLER_0_35_166
*1302 FILLER_0_35_169
*1303 FILLER_0_35_181
*1304 FILLER_0_35_19
*1305 FILLER_0_35_193
*1306 FILLER_0_35_205
*1307 FILLER_0_35_217
*1308 FILLER_0_35_223
*1309 FILLER_0_35_225
*1310 FILLER_0_35_31
*1311 FILLER_0_35_38
*1312 FILLER_0_35_52
*1313 FILLER_0_35_57
*1314 FILLER_0_35_7
*1315 FILLER_0_35_84
*1316 FILLER_0_35_96
*1317 FILLER_0_36_109
*1318 FILLER_0_36_144
*1319 FILLER_0_36_167
*1320 FILLER_0_36_179
*1321 FILLER_0_36_18
*1322 FILLER_0_36_191
*1323 FILLER_0_36_195
*1324 FILLER_0_36_197
*1325 FILLER_0_36_209
*1326 FILLER_0_36_221
*1327 FILLER_0_36_227
*1328 FILLER_0_36_26
*1329 FILLER_0_36_29
*1330 FILLER_0_36_41
*1331 FILLER_0_36_53
*1332 FILLER_0_36_6
*1333 FILLER_0_36_61
*1334 FILLER_0_36_82
*1335 FILLER_0_36_85
*1336 FILLER_0_36_97
*1337 FILLER_0_37_107
*1338 FILLER_0_37_111
*1339 FILLER_0_37_113
*1340 FILLER_0_37_12
*1341 FILLER_0_37_125
*1342 FILLER_0_37_138
*1343 FILLER_0_37_150
*1344 FILLER_0_37_173
*1345 FILLER_0_37_185
*1346 FILLER_0_37_197
*1347 FILLER_0_37_209
*1348 FILLER_0_37_221
*1349 FILLER_0_37_225
*1350 FILLER_0_37_24
*1351 FILLER_0_37_36
*1352 FILLER_0_37_48
*1353 FILLER_0_37_57
*1354 FILLER_0_37_65
*1355 FILLER_0_37_83
*1356 FILLER_0_37_95
*1357 FILLER_0_38_104
*1358 FILLER_0_38_111
*1359 FILLER_0_38_141
*1360 FILLER_0_38_149
*1361 FILLER_0_38_15
*1362 FILLER_0_38_153
*1363 FILLER_0_38_167
*1364 FILLER_0_38_184
*1365 FILLER_0_38_191
*1366 FILLER_0_38_195
*1367 FILLER_0_38_197
*1368 FILLER_0_38_202
*1369 FILLER_0_38_214
*1370 FILLER_0_38_222
*1371 FILLER_0_38_225
*1372 FILLER_0_38_27
*1373 FILLER_0_38_29
*1374 FILLER_0_38_3
*1375 FILLER_0_38_37
*1376 FILLER_0_38_41
*1377 FILLER_0_38_48
*1378 FILLER_0_38_57
*1379 FILLER_0_38_62
*1380 FILLER_0_38_72
*1381 FILLER_0_38_79
*1382 FILLER_0_38_83
*1383 FILLER_0_38_85
*1384 FILLER_0_38_90
*1385 FILLER_0_38_97
*1386 FILLER_0_3_103
*1387 FILLER_0_3_111
*1388 FILLER_0_3_122
*1389 FILLER_0_3_149
*1390 FILLER_0_3_15
*1391 FILLER_0_3_155
*1392 FILLER_0_3_178
*1393 FILLER_0_3_190
*1394 FILLER_0_3_201
*1395 FILLER_0_3_213
*1396 FILLER_0_3_221
*1397 FILLER_0_3_225
*1398 FILLER_0_3_27
*1399 FILLER_0_3_3
*1400 FILLER_0_3_31
*1401 FILLER_0_3_57
*1402 FILLER_0_3_74
*1403 FILLER_0_3_86
*1404 FILLER_0_3_92
*1405 FILLER_0_4_107
*1406 FILLER_0_4_119
*1407 FILLER_0_4_131
*1408 FILLER_0_4_141
*1409 FILLER_0_4_165
*1410 FILLER_0_4_177
*1411 FILLER_0_4_18
*1412 FILLER_0_4_195
*1413 FILLER_0_4_202
*1414 FILLER_0_4_217
*1415 FILLER_0_4_26
*1416 FILLER_0_4_29
*1417 FILLER_0_4_41
*1418 FILLER_0_4_59
*1419 FILLER_0_4_6
*1420 FILLER_0_4_63
*1421 FILLER_0_4_69
*1422 FILLER_0_4_81
*1423 FILLER_0_4_85
*1424 FILLER_0_5_109
*1425 FILLER_0_5_113
*1426 FILLER_0_5_124
*1427 FILLER_0_5_136
*1428 FILLER_0_5_146
*1429 FILLER_0_5_158
*1430 FILLER_0_5_166
*1431 FILLER_0_5_18
*1432 FILLER_0_5_183
*1433 FILLER_0_5_202
*1434 FILLER_0_5_214
*1435 FILLER_0_5_222
*1436 FILLER_0_5_40
*1437 FILLER_0_5_49
*1438 FILLER_0_5_55
*1439 FILLER_0_5_57
*1440 FILLER_0_5_6
*1441 FILLER_0_5_61
*1442 FILLER_0_5_67
*1443 FILLER_0_5_80
*1444 FILLER_0_5_97
*1445 FILLER_0_6_108
*1446 FILLER_0_6_134
*1447 FILLER_0_6_141
*1448 FILLER_0_6_154
*1449 FILLER_0_6_166
*1450 FILLER_0_6_178
*1451 FILLER_0_6_19
*1452 FILLER_0_6_190
*1453 FILLER_0_6_197
*1454 FILLER_0_6_209
*1455 FILLER_0_6_221
*1456 FILLER_0_6_45
*1457 FILLER_0_6_55
*1458 FILLER_0_6_67
*1459 FILLER_0_6_7
*1460 FILLER_0_6_79
*1461 FILLER_0_6_83
*1462 FILLER_0_6_85
*1463 FILLER_0_6_93
*1464 FILLER_0_7_105
*1465 FILLER_0_7_111
*1466 FILLER_0_7_113
*1467 FILLER_0_7_139
*1468 FILLER_0_7_153
*1469 FILLER_0_7_178
*1470 FILLER_0_7_18
*1471 FILLER_0_7_186
*1472 FILLER_0_7_195
*1473 FILLER_0_7_203
*1474 FILLER_0_7_209
*1475 FILLER_0_7_217
*1476 FILLER_0_7_225
*1477 FILLER_0_7_26
*1478 FILLER_0_7_31
*1479 FILLER_0_7_52
*1480 FILLER_0_7_6
*1481 FILLER_0_7_66
*1482 FILLER_0_7_79
*1483 FILLER_0_7_83
*1484 FILLER_0_8_109
*1485 FILLER_0_8_121
*1486 FILLER_0_8_132
*1487 FILLER_0_8_141
*1488 FILLER_0_8_15
*1489 FILLER_0_8_153
*1490 FILLER_0_8_166
*1491 FILLER_0_8_170
*1492 FILLER_0_8_192
*1493 FILLER_0_8_209
*1494 FILLER_0_8_219
*1495 FILLER_0_8_227
*1496 FILLER_0_8_27
*1497 FILLER_0_8_29
*1498 FILLER_0_8_3
*1499 FILLER_0_8_41
*1500 FILLER_0_8_48
*1501 FILLER_0_8_63
*1502 FILLER_0_8_75
*1503 FILLER_0_8_82
*1504 FILLER_0_8_85
*1505 FILLER_0_8_97
*1506 FILLER_0_9_101
*1507 FILLER_0_9_109
*1508 FILLER_0_9_113
*1509 FILLER_0_9_121
*1510 FILLER_0_9_13
*1511 FILLER_0_9_132
*1512 FILLER_0_9_144
*1513 FILLER_0_9_148
*1514 FILLER_0_9_155
*1515 FILLER_0_9_167
*1516 FILLER_0_9_169
*1517 FILLER_0_9_181
*1518 FILLER_0_9_19
*1519 FILLER_0_9_204
*1520 FILLER_0_9_223
*1521 FILLER_0_9_28
*1522 FILLER_0_9_52
*1523 FILLER_0_9_57
*1524 FILLER_0_9_69
*1525 FILLER_0_9_74
*1526 FILLER_0_9_86
*1527 FILLER_0_9_9
*1528 FILLER_0_9_94
*1529 PHY_EDGE_ROW_0_Left_39
*1530 PHY_EDGE_ROW_0_Right_0
*1531 PHY_EDGE_ROW_10_Left_49
*1532 PHY_EDGE_ROW_10_Right_10
*1533 PHY_EDGE_ROW_11_Left_50
*1534 PHY_EDGE_ROW_11_Right_11
*1535 PHY_EDGE_ROW_12_Left_51
*1536 PHY_EDGE_ROW_12_Right_12
*1537 PHY_EDGE_ROW_13_Left_52
*1538 PHY_EDGE_ROW_13_Right_13
*1539 PHY_EDGE_ROW_14_Left_53
*1540 PHY_EDGE_ROW_14_Right_14
*1541 PHY_EDGE_ROW_15_Left_54
*1542 PHY_EDGE_ROW_15_Right_15
*1543 PHY_EDGE_ROW_16_Left_55
*1544 PHY_EDGE_ROW_16_Right_16
*1545 PHY_EDGE_ROW_17_Left_56
*1546 PHY_EDGE_ROW_17_Right_17
*1547 PHY_EDGE_ROW_18_Left_57
*1548 PHY_EDGE_ROW_18_Right_18
*1549 PHY_EDGE_ROW_19_Left_58
*1550 PHY_EDGE_ROW_19_Right_19
*1551 PHY_EDGE_ROW_1_Left_40
*1552 PHY_EDGE_ROW_1_Right_1
*1553 PHY_EDGE_ROW_20_Left_59
*1554 PHY_EDGE_ROW_20_Right_20
*1555 PHY_EDGE_ROW_21_Left_60
*1556 PHY_EDGE_ROW_21_Right_21
*1557 PHY_EDGE_ROW_22_Left_61
*1558 PHY_EDGE_ROW_22_Right_22
*1559 PHY_EDGE_ROW_23_Left_62
*1560 PHY_EDGE_ROW_23_Right_23
*1561 PHY_EDGE_ROW_24_Left_63
*1562 PHY_EDGE_ROW_24_Right_24
*1563 PHY_EDGE_ROW_25_Left_64
*1564 PHY_EDGE_ROW_25_Right_25
*1565 PHY_EDGE_ROW_26_Left_65
*1566 PHY_EDGE_ROW_26_Right_26
*1567 PHY_EDGE_ROW_27_Left_66
*1568 PHY_EDGE_ROW_27_Right_27
*1569 PHY_EDGE_ROW_28_Left_67
*1570 PHY_EDGE_ROW_28_Right_28
*1571 PHY_EDGE_ROW_29_Left_68
*1572 PHY_EDGE_ROW_29_Right_29
*1573 PHY_EDGE_ROW_2_Left_41
*1574 PHY_EDGE_ROW_2_Right_2
*1575 PHY_EDGE_ROW_30_Left_69
*1576 PHY_EDGE_ROW_30_Right_30
*1577 PHY_EDGE_ROW_31_Left_70
*1578 PHY_EDGE_ROW_31_Right_31
*1579 PHY_EDGE_ROW_32_Left_71
*1580 PHY_EDGE_ROW_32_Right_32
*1581 PHY_EDGE_ROW_33_Left_72
*1582 PHY_EDGE_ROW_33_Right_33
*1583 PHY_EDGE_ROW_34_Left_73
*1584 PHY_EDGE_ROW_34_Right_34
*1585 PHY_EDGE_ROW_35_Left_74
*1586 PHY_EDGE_ROW_35_Right_35
*1587 PHY_EDGE_ROW_36_Left_75
*1588 PHY_EDGE_ROW_36_Right_36
*1589 PHY_EDGE_ROW_37_Left_76
*1590 PHY_EDGE_ROW_37_Right_37
*1591 PHY_EDGE_ROW_38_Left_77
*1592 PHY_EDGE_ROW_38_Right_38
*1593 PHY_EDGE_ROW_3_Left_42
*1594 PHY_EDGE_ROW_3_Right_3
*1595 PHY_EDGE_ROW_4_Left_43
*1596 PHY_EDGE_ROW_4_Right_4
*1597 PHY_EDGE_ROW_5_Left_44
*1598 PHY_EDGE_ROW_5_Right_5
*1599 PHY_EDGE_ROW_6_Left_45
*1600 PHY_EDGE_ROW_6_Right_6
*1601 PHY_EDGE_ROW_7_Left_46
*1602 PHY_EDGE_ROW_7_Right_7
*1603 PHY_EDGE_ROW_8_Left_47
*1604 PHY_EDGE_ROW_8_Right_8
*1605 PHY_EDGE_ROW_9_Left_48
*1606 PHY_EDGE_ROW_9_Right_9
*1607 TAP_TAPCELL_ROW_0_78
*1608 TAP_TAPCELL_ROW_0_79
*1609 TAP_TAPCELL_ROW_0_80
*1610 TAP_TAPCELL_ROW_0_81
*1611 TAP_TAPCELL_ROW_0_82
*1612 TAP_TAPCELL_ROW_0_83
*1613 TAP_TAPCELL_ROW_0_84
*1614 TAP_TAPCELL_ROW_0_85
*1615 TAP_TAPCELL_ROW_10_122
*1616 TAP_TAPCELL_ROW_10_123
*1617 TAP_TAPCELL_ROW_10_124
*1618 TAP_TAPCELL_ROW_10_125
*1619 TAP_TAPCELL_ROW_11_126
*1620 TAP_TAPCELL_ROW_11_127
*1621 TAP_TAPCELL_ROW_11_128
*1622 TAP_TAPCELL_ROW_11_129
*1623 TAP_TAPCELL_ROW_12_130
*1624 TAP_TAPCELL_ROW_12_131
*1625 TAP_TAPCELL_ROW_12_132
*1626 TAP_TAPCELL_ROW_12_133
*1627 TAP_TAPCELL_ROW_13_134
*1628 TAP_TAPCELL_ROW_13_135
*1629 TAP_TAPCELL_ROW_13_136
*1630 TAP_TAPCELL_ROW_13_137
*1631 TAP_TAPCELL_ROW_14_138
*1632 TAP_TAPCELL_ROW_14_139
*1633 TAP_TAPCELL_ROW_14_140
*1634 TAP_TAPCELL_ROW_14_141
*1635 TAP_TAPCELL_ROW_15_142
*1636 TAP_TAPCELL_ROW_15_143
*1637 TAP_TAPCELL_ROW_15_144
*1638 TAP_TAPCELL_ROW_15_145
*1639 TAP_TAPCELL_ROW_16_146
*1640 TAP_TAPCELL_ROW_16_147
*1641 TAP_TAPCELL_ROW_16_148
*1642 TAP_TAPCELL_ROW_16_149
*1643 TAP_TAPCELL_ROW_17_150
*1644 TAP_TAPCELL_ROW_17_151
*1645 TAP_TAPCELL_ROW_17_152
*1646 TAP_TAPCELL_ROW_17_153
*1647 TAP_TAPCELL_ROW_18_154
*1648 TAP_TAPCELL_ROW_18_155
*1649 TAP_TAPCELL_ROW_18_156
*1650 TAP_TAPCELL_ROW_18_157
*1651 TAP_TAPCELL_ROW_19_158
*1652 TAP_TAPCELL_ROW_19_159
*1653 TAP_TAPCELL_ROW_19_160
*1654 TAP_TAPCELL_ROW_19_161
*1655 TAP_TAPCELL_ROW_1_86
*1656 TAP_TAPCELL_ROW_1_87
*1657 TAP_TAPCELL_ROW_1_88
*1658 TAP_TAPCELL_ROW_1_89
*1659 TAP_TAPCELL_ROW_20_162
*1660 TAP_TAPCELL_ROW_20_163
*1661 TAP_TAPCELL_ROW_20_164
*1662 TAP_TAPCELL_ROW_20_165
*1663 TAP_TAPCELL_ROW_21_166
*1664 TAP_TAPCELL_ROW_21_167
*1665 TAP_TAPCELL_ROW_21_168
*1666 TAP_TAPCELL_ROW_21_169
*1667 TAP_TAPCELL_ROW_22_170
*1668 TAP_TAPCELL_ROW_22_171
*1669 TAP_TAPCELL_ROW_22_172
*1670 TAP_TAPCELL_ROW_22_173
*1671 TAP_TAPCELL_ROW_23_174
*1672 TAP_TAPCELL_ROW_23_175
*1673 TAP_TAPCELL_ROW_23_176
*1674 TAP_TAPCELL_ROW_23_177
*1675 TAP_TAPCELL_ROW_24_178
*1676 TAP_TAPCELL_ROW_24_179
*1677 TAP_TAPCELL_ROW_24_180
*1678 TAP_TAPCELL_ROW_24_181
*1679 TAP_TAPCELL_ROW_25_182